On Peak 2030 v11/nyiso_2030_v11_shunts_as_gens.m
function mpc = nyiso_2030_v11_shunts_as_gens
%NYISO_2030_V11_SHUNTS_AS_GENS

%% MATPOWER Case Format : Version 2
mpc.version = '2';

%%-----  Power Flow Data  -----%%
%% system MVA base
mpc.baseMVA = 100;

%% bus data
%	bus_i	type	Pd	Qd	Gs	Bs	area	Vm	Va	baseKV	zone	Vmax	Vmin	lam_P	lam_Q	mu_Vmax	mu_Vmin
mpc.bus = [
	1	2	132.34	0	0	0	1	1.02	114.010764	115	66	1.1	0.9	-2.0000	0.0000	0.0000	0.0000;
	2	1	1.78	0	0	0	1	1.01185119	69.1736846	69	70	1.1	0.9	-2.0000	0.0000	0.0000	0.0000;
	3	1	3.97	0	0	0	1	1.01743322	86.9227634	115	70	1.1	0.9	-2.0000	0.0000	0.0000	0.0000;
	4	1	96.6	0	0	0	1	0.998250321	111.264157	115	68	1.1	0.9	-2.0000	0.0000	0.0000	0.0000;
	5	1	3.97	0	0	0	1	1.00952914	91.866988	115	70	1.1	0.9	-2.0000	0.0000	0.0000	0.0000;
	6	2	3.97	0	0	0	1	1.02	71.607494	115	70	1.1	0.9	-2.0000	0.0000	0.0000	0.0000;
	7	1	7.93	0	0	0	1	1.01603966	71.2948367	115	70	1.1	0.9	-2.0000	0.0000	0.0000	0.0000;
	8	1	7.93	0	0	0	1	1.01896183	71.7404588	115	70	1.1	0.9	-2.0000	0.0000	0.0000	0.0000;
	9	1	38.36	0	0	0	1	1.01317074	62.9145382	115	71	1.1	0.9	-2.0000	0.0000	0.0000	0.0000;
	10	1	19.32	0	0	0	1	1.01922757	105.488512	115	68	1.1	0.9	-2.0000	0.0000	0.0000	0.0000;
	11	1	7.93	0	0	0	1	1.01833511	86.7024334	115	70	1.1	0.9	-2.0000	0.0000	0.0000	0.0000;
	12	1	3.97	0	0	0	1	1.01730107	70.1227404	115	70	1.1	0.9	-2.0000	0.0000	0.0000	0.0000;
	13	1	15.86	0	0	0	1	1.01495804	69.090489	115	70	1.1	0.9	-2.0000	0.0000	0.0000	0.0000;
	14	1	4.21	0	0	0	1	1.01316281	77.3598514	115	69	1.1	0.9	-2.0000	0.0000	0.0000	0.0000;
	15	2	4.21	0	0	0	1	1.02	109.076608	115	69	1.1	0.9	-2.0000	0.0000	0.0000	0.0000;
	16	1	10.53	0	0	0	1	1.00804129	93.3628206	115	69	1.1	0.9	-2.0000	0.0000	0.0000	0.0000;
	17	2	44.93	0	0	0	1	1.01517668	37.7885913	138	75	1.1	0.9	-2.0000	0.0000	0.0000	0.0000;
	18	2	42.13	0	0	0	1	1.02158763	42.6053518	69	75	1.1	0.9	-2.0000	0.0000	0.0000	0.0000;
	19	2	86.98	0	0	0	1	1.02	39.4011866	115	75	1.1	0.9	-2.0000	0.0000	0.0000	0.0000;
	20	1	8.42	0	0	0	1	1.0192146	112.774453	115	69	1.1	0.9	-2.0000	0.0000	0.0000	0.0000;
	21	1	8.42	0	0	0	1	1.01980445	112.772131	115	69	1.1	0.9	-2.0000	0.0000	0.0000	0.0000;
	22	1	1.78	0	0	0	1	1.01954708	70.522682	69	70	1.1	0.9	-2.0000	0.0000	0.0000	0.0000;
	23	1	10.53	0	0	0	1	1.01506334	77.6277843	115	69	1.1	0.9	-2.0000	0.0000	0.0000	0.0000;
	24	2	22.54	0	0	0	1	1.02	105.7876	115	67	1.1	0.9	-2.0000	0.0000	0.0000	0.0000;
	25	1	2.11	0	0	0	1	1.02046829	105.067916	115	69	1.1	0.9	-2.0000	0.0000	0.0000	0.0000;
	26	2	0	0	0	0	1	1.02	52.2406948	345	74	1.1	0.9	-2.0000	0.0000	0.0000	0.0000;
	27	2	9.02	0	0	0	1	1.02	100.54679	115	67	1.1	0.9	-2.0000	0.0000	0.0000	0.0000;
	28	2	2.11	0	0	0	1	1.01995857	105.468109	115	69	1.1	0.9	-2.0000	0.0000	0.0000	0.0000;
	29	2	18.04	0	0	0	1	0.997096865	108.844156	115	67	1.1	0.9	-2.0000	0.0000	0.0000	0.0000;
	30	2	9.02	0	0	0	1	1.02	118.964797	115	67	1.1	0.9	-2.0000	0.0000	0.0000	0.0000;
	31	2	3.97	0	0	0	1	1.02	72.7894038	115	70	1.1	0.9	-2.0000	0.0000	0.0000	0.0000;
	32	2	3.97	0	0	0	1	1.02	72.8088058	115	70	1.1	0.9	-2.0000	0.0000	0.0000	0.0000;
	33	2	5.71	0	0	0	1	1.025	129.661395	115	65	1.1	0.9	-2.0000	0.0000	0.0000	0.0000;
	34	2	9.02	0	0	0	1	1.02	109.853468	115	67	1.1	0.9	-2.0000	0.0000	0.0000	0.0000;
	35	1	45.97	0	0	0	1	1.00426267	106.732895	115	68	1.1	0.9	-2.0000	0.0000	0.0000	0.0000;
	36	1	45.97	0	0	0	1	1.00406717	106.797033	115	68	1.1	0.9	-2.0000	0.0000	0.0000	0.0000;
	37	2	8.57	0	0	0	1	1.00991513	124.237248	115	65	1.1	0.9	-2.0000	0.0000	0.0000	0.0000;
	38	2	5.71	0	0	0	1	1.02	127.269313	115	65	1.1	0.9	-2.0000	0.0000	0.0000	0.0000;
	39	2	0	0	0	0	1	1.025	133.534387	230	65	1.1	0.9	-2.0000	0.0000	0.0000	0.0000;
	40	1	2.11	0	0	0	1	1.02439914	119.454242	115	69	1.1	0.9	-2.0000	0.0000	0.0000	0.0000;
	41	2	5.71	0	0	0	1	1.01006189	126.310057	115	65	1.1	0.9	-2.0000	0.0000	0.0000	0.0000;
	42	1	19.99	0	0	0	1	1.01998893	123.743602	115	65	1.1	0.9	-2.0000	0.0000	0.0000	0.0000;
	43	1	5.71	0	0	0	1	1.01858644	123.353012	115	65	1.1	0.9	-2.0000	0.0000	0.0000	0.0000;
	44	1	2.86	0	0	0	1	1.01860611	123.362563	115	65	1.1	0.9	-2.0000	0.0000	0.0000	0.0000;
	45	1	8.57	0	0	0	1	1.01861549	123.364808	115	65	1.1	0.9	-2.0000	0.0000	0.0000	0.0000;
	46	1	5.71	0	0	0	1	1.01993166	123.729586	115	65	1.1	0.9	-2.0000	0.0000	0.0000	0.0000;
	47	1	2.86	0	0	0	1	1.02200233	124.573376	115	65	1.1	0.9	-2.0000	0.0000	0.0000	0.0000;
	48	1	11.42	0	0	0	1	1.01949278	124.749242	115	65	1.1	0.9	-2.0000	0.0000	0.0000	0.0000;
	49	1	4.21	0	0	0	1	1.01484419	82.2712775	115	69	1.1	0.9	-2.0000	0.0000	0.0000	0.0000;
	50	1	4.21	0	0	0	1	1.00956531	110.291089	115	69	1.1	0.9	-2.0000	0.0000	0.0000	0.0000;
	51	1	4.51	0	0	0	1	1.01720511	120.679335	115	67	1.1	0.9	-2.0000	0.0000	0.0000	0.0000;
	52	2	4.51	0	0	0	1	1.02	121.089582	115	67	1.1	0.9	-2.0000	0.0000	0.0000	0.0000;
	53	2	9.02	0	0	0	1	1.02	120.75422	115	67	1.1	0.9	-2.0000	0.0000	0.0000	0.0000;
	54	1	0	0	0	0	1	1.0158205	121.680384	230	67	1.1	0.9	-2.0000	0.0000	0.0000	0.0000;
	55	1	13.53	0	0	0	1	1.00273211	111.527862	115	67	1.1	0.9	-2.0000	0.0000	0.0000	0.0000;
	56	1	9.02	0	0	0	1	1.00139449	110.205255	115	67	1.1	0.9	-2.0000	0.0000	0.0000	0.0000;
	57	1	9.02	0	0	0	1	1.00103588	108.697638	115	67	1.1	0.9	-2.0000	0.0000	0.0000	0.0000;
	58	1	6.76	0	0	0	1	1.01923657	109.613913	115	67	1.1	0.9	-2.0000	0.0000	0.0000	0.0000;
	59	1	14.74	0	0	0	1	1.02127165	105.052342	115	69	1.1	0.9	-2.0000	0.0000	0.0000	0.0000;
	60	2	1.89	0	0	0	1	1.02	70.3634661	69	69	1.1	0.9	-2.0000	0.0000	0.0000	0.0000;
	61	1	13.53	0	0	0	1	1.00502031	100.176425	115	67	1.1	0.9	-2.0000	0.0000	0.0000	0.0000;
	62	1	0	0	0	0	1	1.02000226	81.300757	345	70	1.1	0.9	-2.0000	0.0000	0.0000	0.0000;
	63	2	0	0	0	0	1	1.02	81.3231829	345	70	1.1	0.9	-2.0000	0.0000	0.0000	0.0000;
	64	1	2.11	0	0	0	1	1.00487364	106.528886	115	69	1.1	0.9	-2.0000	0.0000	0.0000	0.0000;
	65	1	5.71	0	0	0	1	1.0207942	122.259481	115	65	1.1	0.9	-2.0000	0.0000	0.0000	0.0000;
	66	1	5.71	0	0	0	1	1.01736391	119.787499	115	65	1.1	0.9	-2.0000	0.0000	0.0000	0.0000;
	67	1	2.86	0	0	0	1	1.0173999	119.838186	115	65	1.1	0.9	-2.0000	0.0000	0.0000	0.0000;
	68	1	5.71	0	0	0	1	1.01692055	122.210152	115	65	1.1	0.9	-2.0000	0.0000	0.0000	0.0000;
	69	2	14.28	0	0	0	1	1.02	120.167843	115	65	1.1	0.9	-2.0000	0.0000	0.0000	0.0000;
	70	1	5.71	0	0	0	1	1.01979611	120.148184	115	65	1.1	0.9	-2.0000	0.0000	0.0000	0.0000;
	71	1	8.57	0	0	0	1	1.02231736	122.215299	115	65	1.1	0.9	-2.0000	0.0000	0.0000	0.0000;
	72	1	2.86	0	0	0	1	1.01997682	122.296966	115	65	1.1	0.9	-2.0000	0.0000	0.0000	0.0000;
	73	1	5.71	0	0	0	1	1.01992558	122.282595	115	65	1.1	0.9	-2.0000	0.0000	0.0000	0.0000;
	74	1	11.42	0	0	0	1	1.01977109	122.237196	115	65	1.1	0.9	-2.0000	0.0000	0.0000	0.0000;
	75	1	2.86	0	0	0	1	1.01957869	122.184764	115	65	1.1	0.9	-2.0000	0.0000	0.0000	0.0000;
	76	1	5.71	0	0	0	1	1.01956908	122.182488	115	65	1.1	0.9	-2.0000	0.0000	0.0000	0.0000;
	77	1	14.28	0	0	0	1	1.02010039	121.200471	115	65	1.1	0.9	-2.0000	0.0000	0.0000	0.0000;
	78	1	5.71	0	0	0	1	1.02123294	121.711737	115	65	1.1	0.9	-2.0000	0.0000	0.0000	0.0000;
	79	2	0	0	0	0	1	1.02	52.9074331	345	74	1.1	0.9	-2.0000	0.0000	0.0000	0.0000;
	80	2	4.21	0	0	0	1	1.01875984	104.876082	115	69	1.1	0.9	-2.0000	0.0000	0.0000	0.0000;
	81	1	22.54	0	0	0	1	1.00740858	96.0529061	115	67	1.1	0.9	-2.0000	0.0000	0.0000	0.0000;
	82	2	2.11	0	0	0	1	1.02	89.7343085	115	69	1.1	0.9	-2.0000	0.0000	0.0000	0.0000;
	83	1	6.32	0	0	0	1	1.02052657	105.120472	115	69	1.1	0.9	-2.0000	0.0000	0.0000	0.0000;
	84	2	3.97	0	0	0	1	1.02	72.645895	115	70	1.1	0.9	-2.0000	0.0000	0.0000	0.0000;
	85	1	2.86	0	0	0	1	1.01708166	120.40019	115	65	1.1	0.9	-2.0000	0.0000	0.0000	0.0000;
	86	1	5.71	0	0	0	1	1.01707328	125.081508	115	65	1.1	0.9	-2.0000	0.0000	0.0000	0.0000;
	87	1	8.57	0	0	0	1	1.01651811	125.212527	115	65	1.1	0.9	-2.0000	0.0000	0.0000	0.0000;
	88	1	5.71	0	0	0	1	1.016515	125.404473	115	65	1.1	0.9	-2.0000	0.0000	0.0000	0.0000;
	89	1	2.86	0	0	0	1	1.01655366	125.475441	115	65	1.1	0.9	-2.0000	0.0000	0.0000	0.0000;
	90	1	5.71	0	0	0	1	1.01685957	125.693732	115	65	1.1	0.9	-2.0000	0.0000	0.0000	0.0000;
	91	1	5.71	0	0	0	1	1.0174064	126.016035	115	65	1.1	0.9	-2.0000	0.0000	0.0000	0.0000;
	92	1	16.54	0	0	0	1	1.01054853	120.495212	115	66	1.1	0.9	-2.0000	0.0000	0.0000	0.0000;
	93	1	16.54	0	0	0	1	1.01944919	123.43982	115	66	1.1	0.9	-2.0000	0.0000	0.0000	0.0000;
	94	1	16.54	0	0	0	1	1.01929398	126.519805	115	66	1.1	0.9	-2.0000	0.0000	0.0000	0.0000;
	95	2	8.27	0	0	0	1	1.02	126.649395	115	66	1.1	0.9	-2.0000	0.0000	0.0000	0.0000;
	96	1	8.27	0	0	0	1	1.01676524	126.124041	115	66	1.1	0.9	-2.0000	0.0000	0.0000	0.0000;
	97	1	16.54	0	0	0	1	1.01682741	126.161045	115	66	1.1	0.9	-2.0000	0.0000	0.0000	0.0000;
	98	1	16.54	0	0	0	1	1.01285054	119.805581	115	66	1.1	0.9	-2.0000	0.0000	0.0000	0.0000;
	99	1	16.54	0	0	0	1	1.01011379	119.334779	115	66	1.1	0.9	-2.0000	0.0000	0.0000	0.0000;
	100	1	8.27	0	0	0	1	1.00768887	119.172302	115	66	1.1	0.9	-2.0000	0.0000	0.0000	0.0000;
	101	1	5.71	0	0	0	1	1.00980389	118.355072	115	65	1.1	0.9	-2.0000	0.0000	0.0000	0.0000;
	102	1	5.71	0	0	0	1	1.00973807	118.365471	115	65	1.1	0.9	-2.0000	0.0000	0.0000	0.0000;
	103	1	2.86	0	0	0	1	1.00869075	118.623445	115	65	1.1	0.9	-2.0000	0.0000	0.0000	0.0000;
	104	1	5.71	0	0	0	1	1.00803705	124.542502	115	65	1.1	0.9	-2.0000	0.0000	0.0000	0.0000;
	105	1	22.85	0	0	0	1	1.00803664	124.833597	115	65	1.1	0.9	-2.0000	0.0000	0.0000	0.0000;
	106	1	5.71	0	0	0	1	1.00830173	125.073628	115	65	1.1	0.9	-2.0000	0.0000	0.0000	0.0000;
	107	1	14.28	0	0	0	1	1.00922319	125.528585	115	65	1.1	0.9	-2.0000	0.0000	0.0000	0.0000;
	108	1	9.02	0	0	0	1	1.00711637	107.26378	115	67	1.1	0.9	-2.0000	0.0000	0.0000	0.0000;
	109	1	9.02	0	0	0	1	1.00547527	107.030642	115	67	1.1	0.9	-2.0000	0.0000	0.0000	0.0000;
	110	1	13.53	0	0	0	1	1.00421952	102.169827	115	67	1.1	0.9	-2.0000	0.0000	0.0000	0.0000;
	111	1	9.02	0	0	0	1	1.00160156	106.780545	115	67	1.1	0.9	-2.0000	0.0000	0.0000	0.0000;
	112	1	9.02	0	0	0	1	1.0024501	97.3862588	115	67	1.1	0.9	-2.0000	0.0000	0.0000	0.0000;
	113	1	9.02	0	0	0	1	1.00150518	97.9107709	115	67	1.1	0.9	-2.0000	0.0000	0.0000	0.0000;
	114	1	9.02	0	0	0	1	1.00138054	98.7433152	115	67	1.1	0.9	-2.0000	0.0000	0.0000	0.0000;
	115	1	9.02	0	0	0	1	1.00336624	93.0285756	115	67	1.1	0.9	-2.0000	0.0000	0.0000	0.0000;
	116	2	9.02	0	0	0	1	1.00623558	95.6901177	115	67	1.1	0.9	-2.0000	0.0000	0.0000	0.0000;
	117	1	13.53	0	0	0	1	1.00557688	95.5412318	115	67	1.1	0.9	-2.0000	0.0000	0.0000	0.0000;
	118	1	9.02	0	0	0	1	1.00371921	94.93788	115	67	1.1	0.9	-2.0000	0.0000	0.0000	0.0000;
	119	1	9.02	0	0	0	1	1.0037183	94.923233	115	67	1.1	0.9	-2.0000	0.0000	0.0000	0.0000;
	120	1	9.02	0	0	0	1	1.00420224	95.0586852	115	67	1.1	0.9	-2.0000	0.0000	0.0000	0.0000;
	121	1	9.02	0	0	0	1	1.00471866	95.2862751	115	67	1.1	0.9	-2.0000	0.0000	0.0000	0.0000;
	122	1	9.02	0	0	0	1	1.00582874	95.6140227	115	67	1.1	0.9	-2.0000	0.0000	0.0000	0.0000;
	123	1	9.02	0	0	0	1	1.00440818	95.1856792	115	67	1.1	0.9	-2.0000	0.0000	0.0000	0.0000;
	124	1	27.05	0	0	0	1	1.00107061	106.758814	115	67	1.1	0.9	-2.0000	0.0000	0.0000	0.0000;
	125	2	2.11	0	0	0	1	1.03	118.542138	115	69	1.1	0.9	-2.0000	0.0000	0.0000	0.0000;
	126	1	2.11	0	0	0	1	1.02894435	118.406652	115	69	1.1	0.9	-2.0000	0.0000	0.0000	0.0000;
	127	2	39.66	0	0	0	1	1.01330877	71.6444411	115	70	1.1	0.9	-2.0000	0.0000	0.0000	0.0000;
	128	2	49.63	0	0	0	1	1.02	118.666918	115	66	1.1	0.9	-2.0000	0.0000	0.0000	0.0000;
	129	1	24.81	0	0	0	1	1.01944465	111.815465	115	66	1.1	0.9	-2.0000	0.0000	0.0000	0.0000;
	130	1	8.27	0	0	0	1	1.01873594	112.674206	115	66	1.1	0.9	-2.0000	0.0000	0.0000	0.0000;
	131	1	27.05	0	0	0	1	1.01731662	120.708027	115	67	1.1	0.9	-2.0000	0.0000	0.0000	0.0000;
	132	1	0	0	0	0	1	1.01845327	126.770591	230	67	1.1	0.9	-2.0000	0.0000	0.0000	0.0000;
	133	1	13.53	0	0	0	1	1.00198684	107.364669	115	67	1.1	0.9	-2.0000	0.0000	0.0000	0.0000;
	134	1	14.28	0	0	0	1	1.01375636	122.373309	115	65	1.1	0.9	-2.0000	0.0000	0.0000	0.0000;
	135	1	5.71	0	0	0	1	1.01480203	124.985883	115	65	1.1	0.9	-2.0000	0.0000	0.0000	0.0000;
	136	1	5.71	0	0	0	1	1.01367943	125.259198	115	65	1.1	0.9	-2.0000	0.0000	0.0000	0.0000;
	137	1	5.71	0	0	0	1	1.01776161	126.600174	115	65	1.1	0.9	-2.0000	0.0000	0.0000	0.0000;
	138	1	0	0	0	0	1	1.02260822	133.553162	230	65	1.1	0.9	-2.0000	0.0000	0.0000	0.0000;
	139	1	8.57	0	0	0	1	1.02150126	127.337717	115	65	1.1	0.9	-2.0000	0.0000	0.0000	0.0000;
	140	1	12.17	0	0	0	1	1.02157547	127.369187	115	65	1.1	0.9	-2.0000	0.0000	0.0000	0.0000;
	141	1	5.71	0	0	0	1	1.01627898	124.47071	115	65	1.1	0.9	-2.0000	0.0000	0.0000	0.0000;
	142	1	8.57	0	0	0	1	1.01559425	123.902088	115	65	1.1	0.9	-2.0000	0.0000	0.0000	0.0000;
	143	1	5.71	0	0	0	1	1.02191993	128.624999	115	65	1.1	0.9	-2.0000	0.0000	0.0000	0.0000;
	144	1	5.71	0	0	0	1	1.0178179	127.76528	115	65	1.1	0.9	-2.0000	0.0000	0.0000	0.0000;
	145	1	8.57	0	0	0	1	1.01598203	127.233718	115	65	1.1	0.9	-2.0000	0.0000	0.0000	0.0000;
	146	1	2.86	0	0	0	1	1.01552247	127.106302	115	65	1.1	0.9	-2.0000	0.0000	0.0000	0.0000;
	147	1	4.51	0	0	0	1	0.999635995	106.901699	115	67	1.1	0.9	-2.0000	0.0000	0.0000	0.0000;
	148	1	4.51	0	0	0	1	1.00466442	99.5733347	115	67	1.1	0.9	-2.0000	0.0000	0.0000	0.0000;
	149	1	13.53	0	0	0	1	1.00400076	100.583725	115	67	1.1	0.9	-2.0000	0.0000	0.0000	0.0000;
	150	2	9.02	0	0	0	1	1.00615196	99.9878496	115	67	1.1	0.9	-2.0000	0.0000	0.0000	0.0000;
	151	1	4.51	0	0	0	1	1.00617568	99.9941694	115	67	1.1	0.9	-2.0000	0.0000	0.0000	0.0000;
	152	1	9.02	0	0	0	1	0.997916933	111.034598	115	67	1.1	0.9	-2.0000	0.0000	0.0000	0.0000;
	153	1	4.51	0	0	0	1	1.00599541	95.3581961	115	67	1.1	0.9	-2.0000	0.0000	0.0000	0.0000;
	154	1	13.53	0	0	0	1	1.00225382	97.1942391	115	67	1.1	0.9	-2.0000	0.0000	0.0000	0.0000;
	155	1	4.51	0	0	0	1	1.00198156	97.1220708	115	67	1.1	0.9	-2.0000	0.0000	0.0000	0.0000;
	156	1	9.02	0	0	0	1	1.00145423	96.9536233	115	67	1.1	0.9	-2.0000	0.0000	0.0000	0.0000;
	157	1	4.51	0	0	0	1	1.00143911	96.9450725	115	67	1.1	0.9	-2.0000	0.0000	0.0000	0.0000;
	158	1	4.51	0	0	0	1	1.00159752	96.9790116	115	67	1.1	0.9	-2.0000	0.0000	0.0000	0.0000;
	159	1	5.71	0	0	0	1	1.02027784	127.774996	115	65	1.1	0.9	-2.0000	0.0000	0.0000	0.0000;
	160	1	2.86	0	0	0	1	1.01716055	126.299767	115	65	1.1	0.9	-2.0000	0.0000	0.0000	0.0000;
	161	1	5.71	0	0	0	1	1.01791637	124.766064	115	65	1.1	0.9	-2.0000	0.0000	0.0000	0.0000;
	162	1	11.42	0	0	0	1	1.01758119	124.754801	115	65	1.1	0.9	-2.0000	0.0000	0.0000	0.0000;
	163	1	14.28	0	0	0	1	1.01664471	124.74298	115	65	1.1	0.9	-2.0000	0.0000	0.0000	0.0000;
	164	1	2.86	0	0	0	1	1.0166397	124.741775	115	65	1.1	0.9	-2.0000	0.0000	0.0000	0.0000;
	165	1	2.86	0	0	0	1	1.01246609	125.645082	115	65	1.1	0.9	-2.0000	0.0000	0.0000	0.0000;
	166	1	2.86	0	0	0	1	1.01273646	125.711561	115	65	1.1	0.9	-2.0000	0.0000	0.0000	0.0000;
	167	1	9.02	0	0	0	1	1.01046768	100.749492	115	67	1.1	0.9	-2.0000	0.0000	0.0000	0.0000;
	168	1	2.11	0	0	0	1	1.01000328	96.853902	115	69	1.1	0.9	-2.0000	0.0000	0.0000	0.0000;
	169	1	9.02	0	0	0	1	1.0112966	100.199658	115	67	1.1	0.9	-2.0000	0.0000	0.0000	0.0000;
	170	1	9.02	0	0	0	1	1.01218414	100.067765	115	67	1.1	0.9	-2.0000	0.0000	0.0000	0.0000;
	171	1	36.07	0	0	0	1	1.01177908	100.051943	115	67	1.1	0.9	-2.0000	0.0000	0.0000	0.0000;
	172	1	9.02	0	0	0	1	1.01065241	100.735215	115	67	1.1	0.9	-2.0000	0.0000	0.0000	0.0000;
	173	1	13.53	0	0	0	1	1.01029167	101.678715	115	67	1.1	0.9	-2.0000	0.0000	0.0000	0.0000;
	174	1	9.02	0	0	0	1	1.01025536	101.557158	115	67	1.1	0.9	-2.0000	0.0000	0.0000	0.0000;
	175	1	9.02	0	0	0	1	1.0117767	101.8401	115	67	1.1	0.9	-2.0000	0.0000	0.0000	0.0000;
	176	1	9.02	0	0	0	1	1.01456216	101.938795	115	67	1.1	0.9	-2.0000	0.0000	0.0000	0.0000;
	177	1	4.51	0	0	0	1	1.01408494	101.957829	115	67	1.1	0.9	-2.0000	0.0000	0.0000	0.0000;
	178	1	13.53	0	0	0	1	1.01593339	102.032322	115	67	1.1	0.9	-2.0000	0.0000	0.0000	0.0000;
	179	1	9.02	0	0	0	1	1.01554302	102.048337	115	67	1.1	0.9	-2.0000	0.0000	0.0000	0.0000;
	180	1	9.02	0	0	0	1	1.01285822	102.311862	115	67	1.1	0.9	-2.0000	0.0000	0.0000	0.0000;
	181	1	9.02	0	0	0	1	1.01549128	101.998599	115	67	1.1	0.9	-2.0000	0.0000	0.0000	0.0000;
	182	1	9.02	0	0	0	1	1.00654587	102.997759	115	67	1.1	0.9	-2.0000	0.0000	0.0000	0.0000;
	183	1	9.02	0	0	0	1	1.00658464	103.007165	115	67	1.1	0.9	-2.0000	0.0000	0.0000	0.0000;
	184	1	9.02	0	0	0	1	1.01181323	102.043917	115	67	1.1	0.9	-2.0000	0.0000	0.0000	0.0000;
	185	1	9.02	0	0	0	1	1.00790221	102.955771	115	67	1.1	0.9	-2.0000	0.0000	0.0000	0.0000;
	186	1	6.32	0	0	0	1	1.01068376	79.3747742	115	69	1.1	0.9	-2.0000	0.0000	0.0000	0.0000;
	187	1	4.21	0	0	0	1	1.00675149	81.9374371	115	69	1.1	0.9	-2.0000	0.0000	0.0000	0.0000;
	188	1	4.21	0	0	0	1	1.01290569	73.6721813	115	69	1.1	0.9	-2.0000	0.0000	0.0000	0.0000;
	189	1	2.11	0	0	0	1	1.01371366	76.7997472	115	69	1.1	0.9	-2.0000	0.0000	0.0000	0.0000;
	190	2	38.64	0	0	0	1	1.02	111.619118	115	68	1.1	0.9	-2.0000	0.0000	0.0000	0.0000;
	191	1	38.64	0	0	0	1	1.00820737	105.395662	115	68	1.1	0.9	-2.0000	0.0000	0.0000	0.0000;
	192	1	57.96	0	0	0	1	1.00039633	110.289852	115	68	1.1	0.9	-2.0000	0.0000	0.0000	0.0000;
	193	2	77.28	0	0	0	1	0.997917678	111.185066	115	68	1.1	0.9	-2.0000	0.0000	0.0000	0.0000;
	194	1	23.8	0	0	0	1	1.01643592	69.1549499	115	70	1.1	0.9	-2.0000	0.0000	0.0000	0.0000;
	195	1	7.93	0	0	0	1	1.01638028	69.1411885	115	70	1.1	0.9	-2.0000	0.0000	0.0000	0.0000;
	196	1	7.93	0	0	0	1	1.01540427	69.0946096	115	70	1.1	0.9	-2.0000	0.0000	0.0000	0.0000;
	197	1	16.54	0	0	0	1	1.02030765	117.520617	115	66	1.1	0.9	-2.0000	0.0000	0.0000	0.0000;
	198	1	16.54	0	0	0	1	1.00225938	110.478006	115	66	1.1	0.9	-2.0000	0.0000	0.0000	0.0000;
	199	2	16.54	0	0	0	1	1.01949537	113.891697	115	66	1.1	0.9	-2.0000	0.0000	0.0000	0.0000;
	200	1	24.81	0	0	0	1	1.00968678	112.71853	115	66	1.1	0.9	-2.0000	0.0000	0.0000	0.0000;
...
];

%% generator data
%	bus	Pg	Qg	Qmax	Qmin	Vg	mBase	status	Pmax	Pmin	Pc1	Pc2	Qc1min	Qc1max	Qc2min	Qc2max	ramp_agc	ramp_10	ramp_30	ramp_q	apf	mu_Pmax	mu_Pmin	mu_Qmax	mu_Qmin
mpc.gen = [
	6	2.8	-0.115360113	1.8	-1.5	1.02	2.8	1	2.8	1	0	0	0	0	0	0	0	5000	15000	0	0	0.0000	0.0000	0.0000	0.0000;
	6	2.8	-0.115360113	1.8	-1.5	1.02	2.8	1	2.8	1	0	0	0	0	0	0	0	5000	15000	0	0	0.0000	0.0000	0.0000	0.0000;
	6	3	-0.147524975	2	-1.7	1.02	3	1	3	1	0	0	0	0	0	0	0	5000	15000	0	0	0.0000	0.0000	0.0000	0.0000;
	6	3	-0.147524975	2	-1.7	1.02	3	1	3	1	0	0	0	0	0	0	0	5000	15000	0	0	0.0000	0.0000	0.0000	0.0000;
	15	8	-1.10192579	5.2	-4.4	1.02	8	1	8	7	0	0	0	0	0	0	0	5000	15000	0	0	0.0000	0.0000	0.0000	0.0000;
	15	8	-1.10192579	5.2	-4.4	1.02	8	1	8	7	0	0	0	0	0	0	0	5000	15000	0	0	0.0000	0.0000	0.0000	0.0000;
	17	0	0	11.7	-9.9	1.02	18	0	18	10.5	0	0	0	0	0	0	0	101	303	0	0	0.0000	0.0000	0.0000	0.0000;
	17	0	0	11.7	-9.9	1.02	18	0	18	11.4	0	0	0	0	0	0	0	102.5	307.5	0	0	0.0000	0.0000	0.0000	0.0000;
	17	0	0	11.7	-9.9	1.02	18	0	18	11	0	0	0	0	0	0	0	100.5	301.5	0	0	0.0000	0.0000	0.0000	0.0000;
	17	0	0	11.7	-9.9	1.02	18	0	18	11.2	0	0	0	0	0	0	0	99.5	298.5	0	0	0.0000	0.0000	0.0000	0.0000;
	17	0	0	11.7	-9.9	1.02	18	0	18	11.4	0	0	0	0	0	0	0	76	228	0	0	0.0000	0.0000	0.0000	0.0000;
	17	0	0	11.7	-9.9	1.02	18	0	18	10.7	0	0	0	0	0	0	0	102.5	307.5	0	0	0.0000	0.0000	0.0000	0.0000;
	17	0	0	11.7	-9.9	1.02	18	0	18	9	0	0	0	0	0	0	0	102	306	0	0	0.0000	0.0000	0.0000	0.0000;
	17	0	0	27.2	-23	1.02	41.8	0	41.8	29.8	0	0	0	0	0	0	0	246	738	0	0	0.0000	0.0000	0.0000	0.0000;
	17	0	0	27.2	-23	1.02	41.8	0	41.8	30	0	0	0	0	0	0	0	250	750	0	0	0.0000	0.0000	0.0000	0.0000;
	17	0	0	27.2	-23	1.02	41.8	0	41.8	30	0	0	0	0	0	0	0	252.5	757.5	0	0	0.0000	0.0000	0.0000	0.0000;
	17	0	0	27.2	-23	1.02	41.8	0	41.8	30	0	0	0	0	0	0	0	243.5	730.5	0	0	0.0000	0.0000	0.0000	0.0000;
	17	0	0	122.2	-103.4	1.02	188	0	188	15	0	0	0	0	0	0	0	79.8	239.4	0	0	0.0000	0.0000	0.0000	0.0000;
	17	0	0	122.2	-103.4	1.02	188	0	188	15	0	0	0	0	0	0	0	76.2	228.6	0	0	0.0000	0.0000	0.0000	0.0000;
	18	0	0	10.4	-8.8	1.02	16	0	16	10	0	0	0	0	0	0	0	88	264	0	0	0.0000	0.0000	0.0000	0.0000;
	18	0	0	34.5	-29.2	1.02	53	0	53	37	0	0	0	0	0	0	0	235	705	0	0	0.0000	0.0000	0.0000	0.0000;
	18	0	0	34.5	-29.2	1.02	53	0	53	37	0	0	0	0	0	0	0	235	705	0	0	0.0000	0.0000	0.0000	0.0000;
	18	0	0	35.8	-30.3	1.02	55	0	55	40	0	0	0	0	0	0	0	275.5	826.5	0	0	0.0000	0.0000	0.0000	0.0000;
	18	0	0	35.8	-30.3	1.02	55	0	55	44.1	0	0	0	0	0	0	0	343	1029	0	0	0.0000	0.0000	0.0000	0.0000;
	19	0	0	10.4	-8.8	1.02	16	0	16	10.6	0	0	0	0	0	0	0	79	237	0	0	0.0000	0.0000	0.0000	0.0000;
	19	0	0	251.6	-212.9	1.02	387	0	387	40	0	0	0	0	0	0	0	159.6	478.8	0	0	0.0000	0.0000	0.0000	0.0000;
	19	0	0	251.6	-212.9	1.02	387	0	387	30	0	0	0	0	0	0	0	157.68	473.04	0	0	0.0000	0.0000	0.0000	0.0000;
	19	0	0	251.6	-212.9	1.02	387	0	387	40	0	0	0	0	0	0	0	158.6	475.8	0	0	0.0000	0.0000	0.0000	0.0000;
	19	0	0	251.6	-212.9	1.02	387	0	387	40	0	0	0	0	0	0	0	158.48	475.44	0	0	0.0000	0.0000	0.0000	0.0000;
	19	200	-8.37783768	9900	-9900	1.02	200	1	200	0	0	0	0	0	0	0	0	0	0	0	0	0.0000	0.0000	0.0000	0.0000;
	21	11	7.2	7.2	-6.1	1.02	11	1	11	0.2	0	0	0	0	0	0	0	5000	15000	0	0	0.0000	0.0000	0.0000	0.0000;
	21	12	7.8	7.8	-6.6	1.02	12	1	12	0.2	0	0	0	0	0	0	0	5000	15000	0	0	0.0000	0.0000	0.0000	0.0000;
	21	13	8.5	8.5	-7.2	1.02	13	1	13	0.2	0	0	0	0	0	0	0	5000	15000	0	0	0.0000	0.0000	0.0000	0.0000;
	24	9	5.32213304	5.9	-5	1.02	9	1	9	3	0	0	0	0	0	0	0	5000	15000	0	0	0.0000	0.0000	0.0000	0.0000;
	24	9	5.32213304	5.9	-5	1.02	9	1	9	3	0	0	0	0	0	0	0	5000	15000	0	0	0.0000	0.0000	0.0000	0.0000;
	24	9	5.32213304	5.9	-5	1.02	9	1	9	3	0	0	0	0	0	0	0	5000	15000	0	0	0.0000	0.0000	0.0000	0.0000;
	24	9	5.32213304	5.9	-5	1.02	9	1	9	3	0	0	0	0	0	0	0	5000	15000	0	0	0.0000	0.0000	0.0000	0.0000;
	26	595	137.780629	446.3	-416.5	1.02	595	1	595	320	0	0	0	0	0	0	0	900	2700	0	0	0.0000	0.0000	0.0000	0.0000;
	26	650	150.481564	487.5	-455	1.02	650	1	650	320	0	0	0	0	0	0	0	900	2700	0	0	0.0000	0.0000	0.0000	0.0000;
	27	122.6	68.9205749	91.9	-85.8	1.02	122.6	1	122.6	42	0	0	0	0	0	0	0	890	2670	0	0	0.0000	0.0000	0.0000	0.0000;
	28	0	0	47.2	-44	1.02	62.9	0	62.9	35	0	0	0	0	0	0	0	560	1680	0	0	0.0000	0.0000	0.0000	0.0000;
	29	0	0	72.8	-61.6	1.02	112	0	112	32	0	0	0	0	0	0	0	42.52	127.56	0	0	0.0000	0.0000	0.0000	0.0000;
	30	4.1	1.57999422	2.7	-2.3	1.02	4.1	1	4.1	0	0	0	0	0	0	0	0	0	0	0	0	0.0000	0.0000	0.0000	0.0000;
	30	55.4	21.1039231	36	-30.5	1.02	55.4	1	55.4	0	0	0	0	0	0	0	0	0	0	0	0	0.0000	0.0000	0.0000	0.0000;
	31	1	-0.21480569	0.7	-0.6	1.02	1	1	1	0.2	0	0	0	0	0	0	0	5000	15000	0	0	0.0000	0.0000	0.0000	0.0000;
	31	1	-0.21480569	0.7	-0.6	1.02	1	1	1	0.2	0	0	0	0	0	0	0	5000	15000	0	0	0.0000	0.0000	0.0000	0.0000;
	31	2.6	-0.481459723	1.7	-1.4	1.02	2.6	1	2.6	0.9	0	0	0	0	0	0	0	5000	15000	0	0	0.0000	0.0000	0.0000	0.0000;
	31	2.6	-0.481459723	1.7	-1.4	1.02	2.6	1	2.6	0.9	0	0	0	0	0	0	0	5000	15000	0	0	0.0000	0.0000	0.0000	0.0000;
	31	2.6	-0.481459723	1.7	-1.4	1.02	2.6	1	2.6	2.3	0	0	0	0	0	0	0	5000	15000	0	0	0.0000	0.0000	0.0000	0.0000;
	31	24.6	-4.75905221	16	-13.5	1.02	24.6	1	24.6	6	0	0	0	0	0	0	0	5000	15000	0	0	0.0000	0.0000	0.0000	0.0000;
	31	24.6	-4.75905221	16	-13.5	1.02	24.6	1	24.6	6	0	0	0	0	0	0	0	5000	15000	0	0	0.0000	0.0000	0.0000	0.0000;
	32	147	-32.8352125	110.2	-102.9	1.02	147	1	147	113	0	0	0	0	0	0	0	650	1950	0	0	0.0000	0.0000	0.0000	0.0000;
	33	56.6	-6.80386956	42.4	-39.6	1.025	56.6	1	56.6	44	0	0	0	0	0	0	0	540	1620	0	0	0.0000	0.0000	0.0000	0.0000;
	34	57.4	13.7453586	43.1	-40.2	1.02	57.4	1	57.4	44.5	0	0	0	0	0	0	0	500	1500	0	0	0.0000	0.0000	0.0000	0.0000;
	35	3.2	2.1	2.1	-1.8	1.02	3.2	1	3.2	0	0	0	0	0	0	0	0	5000	15000	0	0	0.0000	0.0000	0.0000	0.0000;
	35	3.2	2.1	2.1	-1.8	1.02	3.2	1	3.2	0	0	0	0	0	0	0	0	5000	15000	0	0	0.0000	0.0000	0.0000	0.0000;
	35	4	2.6	2.6	-2.2	1.02	4	1	4	0	0	0	0	0	0	0	0	5000	15000	0	0	0.0000	0.0000	0.0000	0.0000;
	35	4	2.6	2.6	-2.2	1.02	4	1	4	0	0	0	0	0	0	0	0	5000	15000	0	0	0.0000	0.0000	0.0000	0.0000;
	35	6	3.9	3.9	-3.3	1.02	6	1	6	0	0	0	0	0	0	0	0	5000	15000	0	0	0.0000	0.0000	0.0000	0.0000;
	35	7	4.6	4.6	-3.9	1.02	7	1	7	0	0	0	0	0	0	0	0	5000	15000	0	0	0.0000	0.0000	0.0000	0.0000;
	37	0	0	166	-154.9	1.02	221.3	0	221.3	104	0	0	0	0	0	0	0	1590	4770	0	0	0.0000	0.0000	0.0000	0.0000;
	38	100.5	-9.9709726	70.4	-55.3	1.02	100.5	1	100.5	0	0	0	0	0	0	0	0	0	0	0	0	0.0000	0.0000	0.0000	0.0000;
	39	126	11.3366567	88.2	-69.3	1.025	126	1	126	0	0	0	0	0	0	0	0	0	0	0	0	0.0000	0.0000	0.0000	0.0000;
	41	0	0	49.3	-46	1.02	65.7	0	65.7	40.6	0	0	0	0	0	0	0	580	1740	0	0	0.0000	0.0000	0.0000	0.0000;
	52	16.2	1.1524086	11.3	-8.9	1.02	16.2	1	16.2	0	0	0	0	0	0	0	0	0	0	0	0	0.0000	0.0000	0.0000	0.0000;
	53	37.5	16.574838	26.3	-20.6	1.02	37.5	1	37.5	0	0	0	0	0	0	0	0	0	0	0	0	0.0000	0.0000	0.0000	0.0000;
	60	0.8	0.496847226	0.6	-0.4	1.02	0.8	1	0.8	0.4	0	0	0	0	0	0	0	5000	15000	0	0	0.0000	0.0000	0.0000	0.0000;
	60	10	5.71059032	7	-5.5	1.02	10	1	10	4	0	0	0	0	0	0	0	5000	15000	0	0	0.0000	0.0000	0.0000	0.0000;
	63	0	0	66.1	-61.7	1.02	88.2	0	88.2	60	0	0	0	0	0	0	0	750	2250	0	0	0.0000	0.0000	0.0000	0.0000;
	63	653.7	-53.4156395	490.3	-457.6	1.02	653.7	1	653.7	315	0	0	0	0	0	0	0	900	2700	0	0	0.0000	0.0000	0.0000	0.0000;
	69	0	0	17.2	-13.5	1.02	24.5	0	24.5	5	0	0	0	0	0	0	0	10	30	0	0	0.0000	0.0000	0.0000	0.0000;
	69	0	0	17.2	-13.5	1.02	24.5	0	24.5	5	0	0	0	0	0	0	0	10	30	0	0	0.0000	0.0000	0.0000	0.0000;
	69	0	0	33.1	-26	1.02	47.3	0	47.3	9	0	0	0	0	0	0	0	235	705	0	0	0.0000	0.0000	0.0000	0.0000;
	69	0	18.526441	20	-20	1.02	10	1	10	-10	0	0	0	0	0	0	0	0	0	0	0	0.0000	0.0000	0.0000	0.0000;
	79	0	0	0.7	-0.6	1.02	1	0	1	0.3	0	0	0	0	0	0	0	2	6	0	0	0.0000	0.0000	0.0000	0.0000;
	79	0	0	0.9	-0.7	1.02	1.3	0	1.3	0.4	0	0	0	0	0	0	0	2.6	7.8	0	0	0.0000	0.0000	0.0000	0.0000;
	79	0	0	1	-0.8	1.02	1.4	0	1.4	0.4	0	0	0	0	0	0	0	2.8	8.4	0	0	0.0000	0.0000	0.0000	0.0000;
	79	0	0	1	-0.8	1.02	1.4	0	1.4	0.4	0	0	0	0	0	0	0	2.8	8.4	0	0	0.0000	0.0000	0.0000	0.0000;
	79	0	0	1.8	-1.4	1.02	2.5	0	2.5	0.1	0	0	0	0	0	0	0	0.6	1.8	0	0	0.0000	0.0000	0.0000	0.0000;
	79	0	0	1.9	-1.5	1.02	2.7	0	2.7	0.8	0	0	0	0	0	0	0	5.4	16.2	0	0	0.0000	0.0000	0.0000	0.0000;
	79	0	0	1.9	-1.5	1.02	2.7	0	2.7	0.8	0	0	0	0	0	0	0	5.4	16.2	0	0	0.0000	0.0000	0.0000	0.0000;
	79	0	0	2.1	-1.7	1.02	3	0	3	0.1	0	0	0	0	0	0	0	0.8	2.4	0	0	0.0000	0.0000	0.0000	0.0000;
	79	0	0	2.1	-1.7	1.02	3	0	3	0.1	0	0	0	0	0	0	0	0.8	2.4	0	0	0.0000	0.0000	0.0000	0.0000;
	79	0	0	5.3	-4.1	1.02	7.5	0	7.5	4	0	0	0	0	0	0	0	37.5	112.5	0	0	0.0000	0.0000	0.0000	0.0000;
	79	0	0	32.9	-25.9	1.02	47	0	47	1	0	0	0	0	0	0	0	233	699	0	0	0.0000	0.0000	0.0000	0.0000;
	79	0	0	109.3	-85.9	1.02	156.2	0	156.2	45	0	0	0	0	0	0	0	59.48	178.44	0	0	0.0000	0.0000	0.0000	0.0000;
	79	110	6.86970355	126	-99	1.02	180	1	180	110	0	0	0	0	0	0	0	398.2	1194.6	0	0	0.0000	0.0000	0.0000	0.0000;
	79	110	6.86970355	126	-99	1.02	180	1	180	110	0	0	0	0	0	0	0	390	1170	0	0	0.0000	0.0000	0.0000	0.0000;
	79	0	0	140	-110	1.02	200	0	200	65	0	0	0	0	0	0	0	72.12	216.36	0	0	0.0000	0.0000	0.0000	0.0000;
	80	0	0	38.9	-30.5	1.02	55.5	0	55.5	15	0	0	0	0	0	0	0	0	0	0	0	0.0000	0.0000	0.0000	0.0000;
	81	0	20	20	-20	1.022	10	1	10	-10	0	0	0	0	0	0	0	0	0	0	0	0.0000	0.0000	0.0000	0.0000;
	82	34.5	-1.26079427	24.2	-19	1.02	34.5	1	34.5	0	0	0	0	0	0	0	0	0	0	0	0	0.0000	0.0000	0.0000	0.0000;
	83	8	-4.4	5.6	-4.4	1.02	8	1	8	4	0	0	0	0	0	0	0	5000	15000	0	0	0.0000	0.0000	0.0000	0.0000;
	83	8	-4.4	5.6	-4.4	1.02	8	1	8	4	0	0	0	0	0	0	0	5000	15000	0	0	0.0000	0.0000	0.0000	0.0000;
	84	11	-0.679667813	7.7	-6.1	1.02	11	1	11	1	0	0	0	0	0	0	0	5000	15000	0	0	0.0000	0.0000	0.0000	0.0000;
	84	11	-0.679667813	7.7	-6.1	1.02	11	1	11	1	0	0	0	0	0	0	0	5000	15000	0	0	0.0000	0.0000	0.0000	0.0000;
	95	50	2.51923117	50.3	-46.9	1.02	67	1	67	37	0	0	0	0	0	0	0	510	1530	0	0	0.0000	0.0000	0.0000	0.0000;
	116	0	0	33.4	-26.2	1.02	47.7	0	47.7	42	0	0	0	0	0	0	0	235	705	0	0	0.0000	0.0000	0.0000	0.0000;
	125	0	0	1.4	-1.1	1.03	2	0	2	0.1	0	0	0	0	0	0	0	4	12	0	0	0.0000	0.0000	0.0000	0.0000;
	125	76	22.2534234	76.6	-71.5	1.03	102.1	1	102.1	76	0	0	0	0	0	0	0	780	2340	0	0	0.0000	0.0000	0.0000	0.0000;
	127	0	0	669.8	-625.2	1.02	893.1	0	893.1	666.4	0	0	0	0	0	0	0	1200	3600	0	0	0.0000	0.0000	0.0000	0.0000;
	128	614	-34.4624923	429.8	-337.7	1.02	614	1	614	461	0	0	0	0	0	0	0	15.106	45.318	0	0	0.0000	0.0000	0.0000	0.0000;
	150	0	0	0.7	-0.6	1.02	1	0	1	0.3	0	0	0	0	0	0	0	2	6	0	0	0.0000	0.0000	0.0000	0.0000;
	150	0	0	0.7	-0.6	1.02	1	0	1	0.3	0	0	0	0	0	0	0	2	6	0	0	0.0000	0.0000	0.0000	0.0000;
	150	0	0	12.6	-11.8	1.02	16.8	0	16.8	8.2	0	0	0	0	0	0	0	140	420	0	0	0.0000	0.0000	0.0000	0.0000;
	150	0	0	15.5	-14.5	1.02	20.7	0	20.7	8.4	0	0	0	0	0	0	0	170	510	0	0	0.0000	0.0000	0.0000	0.0000;
	161	20	14	14	-11	1.02	20	1	20	0	0	0	0	0	0	0	0	0	0	0	0	0.0000	0.0000	0.0000	0.0000;
	178	102.7	77	77	-71.9	1.02	102.7	1	102.7	45	0	0	0	0	0	0	0	540	1620	0	0	0.0000	0.0000	0.0000	0.0000;
	193	0	0	214.2	-199.9	1.02	285.6	0	285.6	90	0	0	0	0	0	0	0	900	2700	0	0	0.0000	0.0000	0.0000	0.0000;
	194	0	14	14	-11	1.02	20	1	20	0	0	0	0	0	0	0	0	200	600	0	0	0.0000	0.0000	0.0000	0.0000;
	199	0	0	5	-4	1.02	7.2	0	7.2	1	0	0	0	0	0	0	0	2.88	8.64	0	0	0.0000	0.0000	0.0000	0.0000;
	199	0	0	12.7	-10	1.02	18.2	0	18.2	2	0	0	0	0	0	0	0	10	30	0	0	0.0000	0.0000	0.0000	0.0000;
	212	0	0	0.6	-0.4	1.02	0.8	0	0.8	0.6	0	0	0	0	0	0	0	0	0	0	0	0.0000	0.0000	0.0000	0.0000;
	212	0	0	0.6	-0.4	1.02	0.8	0	0.8	0.6	0	0	0	0	0	0	0	0	0	0	0	0.0000	0.0000	0.0000	0.0000;
	212	0	0	0.6	-0.4	1.02	0.8	0	0.8	0.6	0	0	0	0	0	0	0	0	0	0	0	0.0000	0.0000	0.0000	0.0000;
	212	0	0	0.6	-0.4	1.02	0.8	0	0.8	0.6	0	0	0	0	0	0	0	0	0	0	0	0.0000	0.0000	0.0000	0.0000;
	212	0	0	0.6	-0.4	1.02	0.8	0	0.8	0.6	0	0	0	0	0	0	0	0	0	0	0	0.0000	0.0000	0.0000	0.0000;
	212	0	0	0.6	-0.4	1.02	0.8	0	0.8	0.6	0	0	0	0	0	0	0	0	0	0	0	0.0000	0.0000	0.0000	0.0000;
	212	0	0	0.6	-0.4	1.02	0.8	0	0.8	0.6	0	0	0	0	0	0	0	0	0	0	0	0.0000	0.0000	0.0000	0.0000;
	212	0	0	0.6	-0.4	1.02	0.8	0	0.8	0.6	0	0	0	0	0	0	0	0	0	0	0	0.0000	0.0000	0.0000	0.0000;
	212	0	0	1.1	-0.9	1.02	1.6	0	1.6	0.8	0	0	0	0	0	0	0	0	0	0	0	0.0000	0.0000	0.0000	0.0000;
	212	0	0	1.1	-0.9	1.02	1.6	0	1.6	0.8	0	0	0	0	0	0	0	0	0	0	0	0.0000	0.0000	0.0000	0.0000;
	212	0	0	1.1	-0.9	1.02	1.6	0	1.6	0.8	0	0	0	0	0	0	0	0	0	0	0	0.0000	0.0000	0.0000	0.0000;
	234	0	0	0.8	-0.6	1.02	1.1	0	1.1	0.5	0	0	0	0	0	0	0	2	6	0	0	0.0000	0.0000	0.0000	0.0000;
	234	0	0	49.6	-46.3	1.02	66.2	0	66.2	48.8	0	0	0	0	0	0	0	510	1530	0	0	0.0000	0.0000	0.0000	0.0000;
	250	0.4	0.169145834	0.3	-0.2	1.02	0.4	1	0.4	0.1	0	0	0	0	0	0	0	5000	15000	0	0	0.0000	0.0000	0.0000	0.0000;
	250	0	0	2.1	-1.7	1.02	3	0	3	0.4	0	0	0	0	0	0	0	0.0572	0.1716	0	0	0.0000	0.0000	0.0000	0.0000;
	250	0	0	8.8	-6.9	1.02	12.5	0	12.5	4	0	0	0	0	0	0	0	0.325	0.975	0	0	0.0000	0.0000	0.0000	0.0000;
	250	12.8	4.8126667	9	-7	1.02	12.8	1	12.8	0	0	0	0	0	0	0	0	5000	15000	0	0	0.0000	0.0000	0.0000	0.0000;
	250	12.8	4.8126667	9	-7	1.02	12.8	1	12.8	0	0	0	0	0	0	0	0	5000	15000	0	0	0.0000	0.0000	0.0000	0.0000;
	250	0	0	10.5	-8.3	1.02	15	0	15	4	0	0	0	0	0	0	0	0.39	1.17	0	0	0.0000	0.0000	0.0000	0.0000;
	250	18	6.71156255	12.6	-9.9	1.02	18	1	18	0	0	0	0	0	0	0	0	5000	15000	0	0	0.0000	0.0000	0.0000	0.0000;
	250	0	0	17.9	-14.1	1.02	25.6	0	25.6	5	0	0	0	0	0	0	0	0.6656	1.9968	0	0	0.0000	0.0000	0.0000	0.0000;
	250	0	0	17.9	-14.1	1.02	25.6	0	25.6	5	0	0	0	0	0	0	0	0.6656	1.9968	0	0	0.0000	0.0000	0.0000	0.0000;
	250	0	0	17.9	-14.1	1.02	25.6	0	25.6	5	0	0	0	0	0	0	0	0.6656	1.9968	0	0	0.0000	0.0000	0.0000	0.0000;
	250	0	0	17.9	-14.1	1.02	25.6	0	25.6	5	0	0	0	0	0	0	0	0.6656	1.9968	0	0	0.0000	0.0000	0.0000	0.0000;
	284	0	0	17.5	-13.8	1.02	25	0	25	3	0	0	0	0	0	0	0	0	0	0	0	0.0000	0.0000	0.0000	0.0000;
	284	0	0	17.5	-13.8	1.02	25	0	25	3	0	0	0	0	0	0	0	0	0	0	0	0.0000	0.0000	0.0000	0.0000;
	317	0	0	44.9	-41.9	1.02	59.9	0	59.9	40	0	0	0	0	0	0	0	490	1470	0	0	0.0000	0.0000	0.0000	0.0000;
	339	0	0	27.7	-21.7	1.02	39.5	0	39.5	3.5	0	0	0	0	0	0	0	0	0	0	0	0.0000	0.0000	0.0000	0.0000;
	357	883.3	13.2215075	618.3	-485.8	1.02	883.3	1	883.3	662	0	0	0	0	0	0	0	22.2014	66.6042	0	0	0.0000	0.0000	0.0000	0.0000;
	358	542.9	-7.75580415	407.2	-380	1.02	542.9	1	542.9	225	0	0	0	0	0	0	0	900	2700	0	0	0.0000	0.0000	0.0000	0.0000;
	358	543.2	-7.76665568	407.4	-380.2	1.02	543.2	1	543.2	225	0	0	0	0	0	0	0	900	2700	0	0	0.0000	0.0000	0.0000	0.0000;
	368	30	17.7006567	21	-16.5	1.02	30	1	30	0.1	0	0	0	0	0	0	0	0	0	0	0	0.0000	0.0000	0.0000	0.0000;
	378	4	2.8	2.8	-2.2	1.02	4	1	4	2.8	0	0	0	0	0	0	0	5000	15000	0	0	0.0000	0.0000	0.0000	0.0000;
	378	4	2.8	2.8	-2.2	1.02	4	1	4	2.8	0	0	0	0	0	0	0	5000	15000	0	0	0.0000	0.0000	0.0000	0.0000;
	378	4	2.8	2.8	-2.2	1.02	4	1	4	2.8	0	0	0	0	0	0	0	5000	15000	0	0	0.0000	0.0000	0.0000	0.0000;
	381	0	0	0.8	-0.6	1.02	1.1	0	1.1	0.2	0	0	0	0	0	0	0	2.2	6.6	0	0	0.0000	0.0000	0.0000	0.0000;
	381	64.2	14.7393919	48.2	-44.9	1.02	64.2	1	64.2	47	0	0	0	0	0	0	0	540	1620	0	0	0.0000	0.0000	0.0000	0.0000;
	395	33	-4.68748854	23.1	-18.2	1.02	33	1	33	0.3	0	0	0	0	0	0	0	0	0	0	0	0.0000	0.0000	0.0000	0.0000;
	395	61	-8.63620764	42.7	-33.6	1.02	61	1	61	0.5	0	0	0	0	0	0	0	0	0	0	0	0.0000	0.0000	0.0000	0.0000;
	395	91	-12.8669781	63.7	-50.1	1.02	91	1	91	0.7	0	0	0	0	0	0	0	0	0	0	0	0.0000	0.0000	0.0000	0.0000;
	395	137	-19.3541595	95.9	-75.4	1.02	137	1	137	1.1	0	0	0	0	0	0	0	0	0	0	0	0.0000	0.0000	0.0000	0.0000;
	399	74	25.6633139	51.8	-40.7	1.02	74	1	74	0	0	0	0	0	0	0	0	0	0	0	0	0.0000	0.0000	0.0000	0.0000;
	405	26	-3.84467639	18.2	-14.3	1.02	26	1	26	1	0	0	0	0	0	0	0	5000	15000	0	0	0.0000	0.0000	0.0000	0.0000;
	406	15	-3.62890414	10.5	-8.3	1.02	15	1	15	1	0	0	0	0	0	0	0	5000	15000	0	0	0.0000	0.0000	0.0000	0.0000;
	407	25	-3.93715181	17.5	-13.8	1.02	25	1	25	1	0	0	0	0	0	0	0	5000	15000	0	0	0.0000	0.0000	0.0000	0.0000;
	408	24	-3.78413677	16.8	-13.2	1.02	24	1	24	1	0	0	0	0	0	0	0	5000	15000	0	0	0.0000	0.0000	0.0000	0.0000;
	409	21	-2.03523435	14.7	-11.6	1.02	21	1	21	1	0	0	0	0	0	0	0	5000	15000	0	0	0.0000	0.0000	0.0000	0.0000;
	463	1.3	0.0459632109	0.9	-0.7	1.02	1.3	1	1.3	0.2	0	0	0	0	0	0	0	5000	15000	0	0	0.0000	0.0000	0.0000	0.0000;
	463	7	0.20279766	4.9	-3.9	1.02	7	1	7	1	0	0	0	0	0	0	0	5000	15000	0	0	0.0000	0.0000	0.0000	0.0000;
	463	7	0.20279766	4.9	-3.9	1.02	7	1	7	1	0	0	0	0	0	0	0	5000	15000	0	0	0.0000	0.0000	0.0000	0.0000;
	463	7	0.20279766	4.9	-3.9	1.02	7	1	7	1	0	0	0	0	0	0	0	5000	15000	0	0	0.0000	0.0000	0.0000	0.0000;
	463	7	0.20279766	4.9	-3.9	1.02	7	1	7	1	0	0	0	0	0	0	0	5000	15000	0	0	0.0000	0.0000	0.0000	0.0000;
	463	7	0.20279766	4.9	-3.9	1.02	7	1	7	1	0	0	0	0	0	0	0	5000	15000	0	0	0.0000	0.0000	0.0000	0.0000;
	469	0	0	10.1	-7.9	1.02	14.4	0	14.4	2	0	0	0	0	0	0	0	0	0	0	0	0.0000	0.0000	0.0000	0.0000;
	474	9	5.31797091	6.3	-5	1.02	9	1	9	4	0	0	0	0	0	0	0	5000	15000	0	0	0.0000	0.0000	0.0000	0.0000;
	474	47	27.7899725	32.9	-25.9	1.02	47	1	47	8	0	0	0	0	0	0	0	5000	15000	0	0	0.0000	0.0000	0.0000	0.0000;
	492	0	0	29.5	-23.2	1.02	42.1	0	42.1	2	0	0	0	0	0	0	0	15.6	46.8	0	0	0.0000	0.0000	0.0000	0.0000;
	508	107.2	16.0919015	80.4	-75	1.02	107.2	1	107.2	56	0	0	0	0	0	0	0	300	900	0	0	0.0000	0.0000	0.0000	0.0000;
	508	0	0	254.1	-237.2	1.02	338.8	0	338.8	101	0	0	0	0	0	0	0	300	900	0	0	0.0000	0.0000	0.0000	0.0000;
	526	18	3.33230301	12.6	-9.9	1.02	18	1	18	1	0	0	0	0	0	0	0	5000	15000	0	0	0.0000	0.0000	0.0000	0.0000;
	535	0	0	29.3	-23	1.02	41.9	0	41.9	5	0	0	0	0	0	0	0	200	600	0	0	0.0000	0.0000	0.0000	0.0000;
	535	740	-53.8056879	577.5	-539	1.02	770	1	770	386	0	0	0	0	0	0	0	900	2700	0	0	0.0000	0.0000	0.0000	0.0000;
	546	0	0	32.6	-25.6	1.02	46.5	0	46.5	5	0	0	0	0	0	0	0	219	657	0	0	0.0000	0.0000	0.0000	0.0000;
	547	0	0	0.1	-0.1	1.02	0.2	0	0.2	0.1	0	0	0	0	0	0	0	0.5	1.5	0	0	0.0000	0.0000	0.0000	0.0000;
	547	0	0	0.3	-0.2	1.02	0.4	0	0.4	0.3	0	0	0	0	0	0	0	1	3	0	0	0.0000	0.0000	0.0000	0.0000;
	547	0	0	0.6	-0.4	1.02	0.8	0	0.8	0.2	0	0	0	0	0	0	0	2	6	0	0	0.0000	0.0000	0.0000	0.0000;
	547	0	0	0.7	-0.6	1.02	1	0	1	0.1	0	0	0	0	0	0	0	2	6	0	0	0.0000	0.0000	0.0000	0.0000;
	547	0	0	0.7	-0.6	1.02	1	0	1	0.3	0	0	0	0	0	0	0	2	6	0	0	0.0000	0.0000	0.0000	0.0000;
	547	0	0	0.7	-0.6	1.02	1	0	1	0.2	0	0	0	0	0	0	0	2	6	0	0	0.0000	0.0000	0.0000	0.0000;
	547	0	0	1.1	-0.8	1.02	1.5	0	1.5	0.1	0	0	0	0	0	0	0	3	9	0	0	0.0000	0.0000	0.0000	0.0000;
	547	0	0	1.1	-0.8	1.02	1.5	0	1.5	0.1	0	0	0	0	0	0	0	3	9	0	0	0.0000	0.0000	0.0000	0.0000;
	547	0	0	1.1	-0.8	1.02	1.5	0	1.5	0.3	0	0	0	0	0	0	0	3	9	0	0	0.0000	0.0000	0.0000	0.0000;
	547	0	0	1.4	-1.1	1.02	2	0	2	0.3	0	0	0	0	0	0	0	4	12	0	0	0.0000	0.0000	0.0000	0.0000;
	547	0	0	1.4	-1.1	1.02	2	0	2	0.3	0	0	0	0	0	0	0	4	12	0	0	0.0000	0.0000	0.0000	0.0000;
	547	0	0	1.8	-1.4	1.02	2.5	0	2.5	0.3	0	0	0	0	0	0	0	5	15	0	0	0.0000	0.0000	0.0000	0.0000;
	552	0	0	11.2	-8.8	1.02	16	0	16	10.6	0	0	0	0	0	0	0	83	249	0	0	0.0000	0.0000	0.0000	0.0000;
	552	0	0	37.1	-29.2	1.02	53	0	53	37	0	0	0	0	0	0	0	233.5	700.5	0	0	0.0000	0.0000	0.0000	0.0000;
	552	0	0	37.1	-29.2	1.02	53	0	53	37	0	0	0	0	0	0	0	235.5	706.5	0	0	0.0000	0.0000	0.0000	0.0000;
	552	0	0	131.6	-103.4	1.02	188	0	188	15	0	0	0	0	0	0	0	75.68	227.04	0	0	0.0000	0.0000	0.0000	0.0000;
	552	0	0	131.6	-103.4	1.02	188	0	188	15	0	0	0	0	0	0	0	77.88	233.64	0	0	0.0000	0.0000	0.0000	0.0000;
	554	348.9	-63.4605668	261.7	-244.2	1.02	348.9	1	348.9	230	0	0	0	0	0	0	0	600	1800	0	0	0.0000	0.0000	0.0000	0.0000;
	556	528	202.178814	396	-369.6	1.02	528	1	528	203	0	0	0	0	0	0	0	900	2700	0	0	0.0000	0.0000	0.0000	0.0000;
	557	0	0	29.3	-23	1.02	41.9	0	41.9	18.6	0	0	0	0	0	0	0	227.5	682.5	0	0	0.0000	0.0000	0.0000	0.0000;
	557	0	0	29.3	-23	1.02	41.9	0	41.9	18.6	0	0	0	0	0	0	0	224	672	0	0	0.0000	0.0000	0.0000	0.0000;
	557	0	0	29.3	-23	1.02	41.9	0	41.9	18.6	0	0	0	0	0	0	0	233	699	0	0	0.0000	0.0000	0.0000	0.0000;
	557	0	0	29.3	-23	1.02	41.9	0	41.9	18.6	0	0	0	0	0	0	0	226	678	0	0	0.0000	0.0000	0.0000	0.0000;
	557	0	0	29.3	-23	1.02	41.9	0	41.9	18.6	0	0	0	0	0	0	0	229	687	0	0	0.0000	0.0000	0.0000	0.0000;
	557	0	0	29.3	-23	1.02	41.9	0	41.9	18.6	0	0	0	0	0	0	0	235	705	0	0	0.0000	0.0000	0.0000	0.0000;
...
];

%% branch data
%	fbus	tbus	r	x	b	rateA	rateB	rateC	ratio	angle	status	angmin	angmax	Pf	Qf	Pt	Qt	mu_Sf	mu_St	mu_angmin	mu_angmax
mpc.branch = [
	142	1	0.03889	0.16081	0.02663	167	556	210	0	0	1	0	0	106.0950	-20.2381	-101.7167	35.5837	0.0000	0.0000	0.0000	0.0000;
	1	199	0.00254	0.01051	0.00174	167	556	210	0	0	1	0	0	20.5499	-0.1381	-20.5396	-0.0002	0.0000	0.0000	0.0000	0.0000;
	1	228	0.01207	0.04989	0.00826	167	556	210	0	0	1	0	0	39.2324	-1.3639	-39.0537	1.2464	0.0000	0.0000	0.0000	0.0000;
	1	228	0.01336	0.05524	0.00915	167	556	210	0	0	1	0	0	35.4334	-1.3171	-35.2721	1.0359	0.0000	0.0000	0.0000	0.0000;
	1	242	0.00663	0.02741	0.00454	167	556	210	0	0	1	0	0	51.7321	-6.8196	-51.5588	7.0644	0.0000	0.0000	0.0000	0.0000;
	881	1	0.00926	0.0383	0.00634	167	556	210	0	0	1	0	0	-63.4676	-11.4765	63.8448	12.3835	0.0000	0.0000	0.0000	0.0000;
	882	1	0.00917	0.03791	0.00628	167	556	210	0	0	1	0	0	-64.1259	-11.5772	64.5072	12.5067	0.0000	0.0000	0.0000	0.0000;
	883	1	0.00543	0.02247	0.00372	167	556	210	0	0	1	0	0	-31.1377	-12.1166	31.1962	11.9734	0.0000	0.0000	0.0000	0.0000;
	1	1402	0.0028	0.01156	0.00192	116	556	145	0	0	1	0	0	85.0144	-10.8285	-84.8168	11.4448	0.0000	0.0000	0.0000	0.0000;
	1	1402	0.0028	0.01156	0.00192	116	556	145	0	0	1	0	0	85.0144	-10.8285	-84.8168	11.4448	0.0000	0.0000	0.0000	0.0000;
	1	1403	0.00276	0.01141	0.00189	167	556	210	0	0	1	0	0	70.1026	0.5047	-69.9723	-0.1619	0.0000	0.0000	0.0000	0.0000;
	1	1404	0.00277	0.01146	0.0019	167	556	210	0	0	1	0	0	70.0339	0.5078	-69.9033	-0.1648	0.0000	0.0000	0.0000	0.0000;
	1	1405	0.00278	0.01149	0.0019	167	556	210	0	0	1	0	0	5.4795	12.0169	-5.4748	-12.1948	0.0000	0.0000	0.0000	0.0000;
	1	1422	0.0019	0.00785	0.0013	167	556	210	0	0	1	0	0	29.0960	-0.1280	-29.0806	0.0567	0.0000	0.0000	0.0000	0.0000;
	1	1550	0.02427	0.10034	0.01662	116	556	145	0	0	1	0	0	-21.7775	11.7825	21.9255	-12.8883	0.0000	0.0000	0.0000	0.0000;
	1	1550	0.02427	0.10034	0.01662	116	556	145	0	0	1	0	0	-21.7775	11.7825	21.9255	-12.8883	0.0000	0.0000	0.0000	0.0000;
	1	1551	0.00477	0.01973	0.00327	556	556	600	0	0	1	0	0	-304.9867	81.5521	309.5575	-62.9864	0.0000	0.0000	0.0000	0.0000;
	1	1551	0.00437	0.01805	0.00299	556	556	600	0	0	1	0	0	-333.3184	89.2735	338.3210	-68.9222	0.0000	0.0000	0.0000	0.0000;
	777	2	0.04083	0.09281	0.00181	96	250	123	0	0	1	0	0	1.7813	-0.1826	-1.7800	0.0000	0.0000	0.0000	0.0000	0.0000;
	794	3	0.00164	0.00676	0.00112	167	556	210	0	0	1	0	0	3.9702	-0.1149	-3.9700	0.0000	0.0000	0.0000	0.0000	0.0000;
	4	193	0.00102	0.00421	0.0007	167	556	210	0	0	1	0	0	32.6619	-0.0382	-32.6510	0.0136	0.0000	0.0000	0.0000	0.0000;
	4	193	0.00105	0.00435	0.00072	167	556	210	0	0	1	0	0	31.6173	-0.0122	-31.6067	-0.0159	0.0000	0.0000	0.0000	0.0000;
	4	193	0.00103	0.00425	0.0007	167	556	210	0	0	1	0	0	32.3540	-0.0404	-32.3432	0.0153	0.0000	0.0000	0.0000	0.0000;
	4	449	0.00637	0.02634	0.00436	167	556	210	0	0	1	0	0	23.5318	-14.5234	-23.4833	14.2884	0.0000	0.0000	0.0000	0.0000;
	4	1527	0.00495	0.0211	0.0027	167	556	210	0	0	1	0	0	-108.3825	7.3071	108.9688	-5.0783	0.0000	0.0000	0.0000	0.0000;
	4	1527	0.00495	0.0211	0.0027	167	556	210	0	0	1	0	0	-108.3825	7.3071	108.9688	-5.0783	0.0000	0.0000	0.0000	0.0000;
	990	5	5e-05	0.00019	3e-05	167	556	210	0	0	1	0	0	3.9700	-0.0030	-3.9700	-0.0000	0.0000	0.0000	0.0000	0.0000;
	635	6	0.00361	0.01494	0.00247	167	556	210	0	0	1	0	0	-7.6280	0.2772	7.6300	-0.5258	0.0000	0.0000	0.0000	0.0000;
	698	7	0.00203	0.00841	0.00139	167	556	210	0	0	1	0	0	1.3055	-0.0947	-1.3054	-0.0486	0.0000	0.0000	0.0000	0.0000;
	699	7	0.00203	0.00839	0.00139	167	556	210	0	0	1	0	0	6.6254	-0.1886	-6.6246	0.0486	0.0000	0.0000	0.0000	0.0000;
	676	8	0.00211	0.00871	0.00144	167	556	210	0	0	1	0	0	-9.2332	1.7236	9.2350	-1.8657	0.0000	0.0000	0.0000	0.0000;
	677	8	0.00211	0.00873	0.00145	167	556	210	0	0	1	0	0	17.1711	-1.9911	-17.1650	1.8657	0.0000	0.0000	0.0000	0.0000;
	9	524	0.01092	0.04516	0.00748	556	556	556	0	0	1	0	0	19.2535	6.2282	-19.2095	-6.8100	0.0000	0.0000	0.0000	0.0000;
	649	9	0.01472	0.06087	0.01008	556	556	556	0	0	1	0	0	0.4788	-13.1772	-0.4554	12.2470	0.0000	0.0000	0.0000	0.0000;
	649	9	0.01472	0.06087	0.01008	556	556	556	0	0	1	0	0	0.4788	-13.1772	-0.4554	12.2470	0.0000	0.0000	0.0000	0.0000;
	848	9	0.001	0.07	0	750	750	750	0.975	0	1	0	0	151.1968	41.8320	-150.9683	-25.8350	0.0000	0.0000	0.0000	0.0000;
	9	851	0.00323	0.01336	0.00221	240	556	265	0	0	1	0	0	94.2655	-4.8872	-93.9852	5.8203	0.0000	0.0000	0.0000	0.0000;
	10	450	0.00418	0.01729	0.00286	167	556	210	0	0	1	0	0	-19.3200	0.0000	19.3350	-0.2352	0.0000	0.0000	0.0000	0.0000;
	11	489	0.00196	0.00812	0.00134	167	556	210	0	0	1	0	0	72.6978	-38.2345	-72.5704	38.6232	0.0000	0.0000	0.0000	0.0000;
	795	11	0.0004	0.00165	0.00027	167	556	210	0	0	1	0	0	80.6585	-38.1358	-80.6278	38.2345	0.0000	0.0000	0.0000	0.0000;
	872	12	5e-05	0.00019	3e-05	167	556	210	0	0	1	0	0	3.9700	-0.0031	-3.9700	-0.0000	0.0000	0.0000	0.0000	0.0000;
	13	196	0.00156	0.00645	0.00107	167	556	210	0	0	1	0	0	-2.6900	-6.4261	2.6907	6.3188	0.0000	0.0000	0.0000	0.0000;
	864	13	0.00811	0.03354	0.00555	167	556	210	0	0	1	0	0	5.1691	-7.0335	-5.1634	6.4864	0.0000	0.0000	0.0000	0.0000;
	865	13	0.00813	0.03361	0.00557	167	556	210	0	0	1	0	0	5.3120	-6.9158	-5.3063	6.3667	0.0000	0.0000	0.0000	0.0000;
	13	1442	0.00156	0.00646	0.00107	167	556	210	0	0	1	0	0	-2.7003	-6.4269	2.7010	6.3197	0.0000	0.0000	0.0000	0.0000;
	14	460	0.00143	0.0059	0.00098	167	556	210	0	0	1	0	0	2.1101	-0.1003	-2.1100	0.0000	0.0000	0.0000	0.0000	0.0000;
	1017	14	0.00284	0.01174	0.00194	167	556	210	0	0	1	0	0	6.3212	-0.2949	-6.3201	0.1003	0.0000	0.0000	0.0000	0.0000;
	59	15	0.03648	0.15084	0.02498	167	556	210	0	0	1	0	0	-45.2016	12.1928	45.9799	-11.5767	0.0000	0.0000	0.0000	0.0000;
	15	402	0.0021	0.0087	0.00144	167	556	210	0	0	1	0	0	-34.1899	9.3728	34.2153	-9.4174	0.0000	0.0000	0.0000	0.0000;
	16	391	0.02118	0.08756	0.0145	167	556	210	0	0	1	0	0	49.2159	-11.4648	-48.6871	12.1778	0.0000	0.0000	0.0000	0.0000;
	1030	16	0.00835	0.03453	0.00572	167	556	210	0	0	1	0	0	93.9206	-17.3744	-93.1738	19.8807	0.0000	0.0000	0.0000	0.0000;
	1050	16	0.02493	0.1031	0.01707	167	556	210	0	0	1	0	0	110.0422	-16.1558	-107.0430	26.8161	0.0000	0.0000	0.0000	0.0000;
	1051	16	0.00207	0.00857	0.00142	167	556	210	0	0	1	0	0	-96.8252	25.2827	97.0292	-24.5824	0.0000	0.0000	0.0000	0.0000;
	16	1394	0.02598	0.10743	0.01779	167	556	210	0	0	1	0	0	43.4417	-10.6497	-42.9349	10.9369	0.0000	0.0000	0.0000	0.0000;
	17	628	0.0017	0.0085	0.064	300	300	330	0	0	1	0	0	-66.8777	1.0980	66.9518	-7.3283	0.0000	0.0000	0.0000	0.0000;
	17	628	0.0017	0.0085	0.064	300	300	330	0	0	1	0	0	-66.8777	1.0980	66.9518	-7.3283	0.0000	0.0000	0.0000	0.0000;
	17	1467	0.00302	0.10864	0	500	500	500	1	0	1	0	0	44.4127	-1.0980	-44.3549	3.1786	0.0000	0.0000	0.0000	0.0000;
	17	1467	0.00302	0.10864	0	500	500	500	1	0	1	0	0	44.4127	-1.0980	-44.3549	3.1786	0.0000	0.0000	0.0000	0.0000;
	18	561	0.04007	0.09109	0.00178	250	250	250	0	0	1	0	0	35.5966	-6.5915	-35.0939	7.5500	0.0000	0.0000	0.0000	0.0000;
	18	583	0.01009	0.02294	0.00045	200	250	200	0	0	1	0	0	34.2308	-0.0245	-34.1176	0.2352	0.0000	0.0000	0.0000	0.0000;
	18	585	0.00802	0.01823	0.00036	250	250	250	0	0	1	0	0	46.1727	0.8561	-46.0088	-0.5210	0.0000	0.0000	0.0000	0.0000;
	18	1494	0.00357	0.00812	0.00016	250	250	250	0	0	1	0	0	-48.9055	1.7657	48.9874	-1.5961	0.0000	0.0000	0.0000	0.0000;
	18	1494	0.0032	0.00727	0.00014	250	250	250	0	0	1	0	0	-54.6123	1.9971	54.7039	-1.8037	0.0000	0.0000	0.0000	0.0000;
	18	1494	0.0032	0.00727	0.00014	250	250	250	0	0	1	0	0	-54.6123	1.9971	54.7039	-1.8037	0.0000	0.0000	0.0000	0.0000;
	19	1538	0.0038	0.01572	0.0026	556	556	556	0	0	1	0	0	22.6040	-1.6756	-22.5853	1.4828	0.0000	0.0000	0.0000	0.0000;
	19	1538	0.0038	0.01572	0.0026	556	556	556	0	0	1	0	0	22.6040	-1.6756	-22.5853	1.4828	0.0000	0.0000	0.0000	0.0000;
	19	1538	0.0038	0.01572	0.0026	556	556	556	0	0	1	0	0	22.6040	-1.6756	-22.5853	1.4828	0.0000	0.0000	0.0000	0.0000;
	19	1538	0.0038	0.01572	0.0026	556	556	556	0	0	1	0	0	22.6040	-1.6756	-22.5853	1.4828	0.0000	0.0000	0.0000	0.0000;
	19	1538	0.0038	0.01572	0.0026	556	556	556	0	0	1	0	0	22.6040	-1.6756	-22.5853	1.4828	0.0000	0.0000	0.0000	0.0000;
	1004	20	0.00062	0.00256	0.00042	167	556	210	0	0	1	0	0	15.8453	10.3821	-15.8432	-10.4169	0.0000	0.0000	0.0000	0.0000;
	1008	20	0.01418	0.05866	0.00971	167	556	210	0	0	1	0	0	-67.0046	5.5201	67.6306	-3.9327	0.0000	0.0000	0.0000	0.0000;
	1020	20	0.00918	0.03796	0.00629	167	556	210	0	0	1	0	0	44.1843	-8.8929	-44.0055	8.9784	0.0000	0.0000	0.0000	0.0000;
	1195	20	0.00943	0.03899	0.00646	167	556	210	0	0	1	0	0	16.2286	-5.9312	-16.2019	5.3713	0.0000	0.0000	0.0000	0.0000;
	21	403	0.005	0.02069	0.00343	167	556	210	0	0	1	0	0	43.2201	-9.6446	-43.1260	9.6774	0.0000	0.0000	0.0000	0.0000;
	21	406	0.02031	0.06988	0.00859	116	556	145	0	0	1	0	0	-25.4155	6.9097	25.5522	-7.3329	0.0000	0.0000	0.0000	0.0000;
	1004	21	0.0004	0.00163	0.00027	167	556	210	0	0	1	0	0	18.8266	-19.1616	-18.8238	19.1448	0.0000	0.0000	0.0000	0.0000;
	1005	21	0.00536	0.02218	0.00367	167	556	210	0	0	1	0	0	39.6999	-10.3684	-39.6133	10.3452	0.0000	0.0000	0.0000	0.0000;
	1009	21	0.01417	0.05861	0.00971	167	556	210	0	0	1	0	0	-67.5775	4.8788	68.2125	-3.2552	0.0000	0.0000	0.0000	0.0000;
	1204	22	0.02827	0.06426	0.00126	96	250	123	0	0	1	0	0	1.7809	-0.1291	-1.7800	0.0000	0.0000	0.0000	0.0000	0.0000;
	751	23	0.03122	0.1291	0.02138	167	556	210	0	0	1	0	0	-88.3745	24.9089	90.9525	-16.4489	0.0000	0.0000	0.0000	0.0000;
	1193	23	0.00673	0.02783	0.00461	222	556	244	0	0	1	0	0	123.2674	-21.7635	-122.2480	25.5032	0.0000	0.0000	0.0000	0.0000;
	1194	23	0.00672	0.0278	0.0046	222	556	244	0	0	1	0	0	123.1305	-21.8420	-122.1145	25.5704	0.0000	0.0000	0.0000	0.0000;
	1208	23	0.01755	0.07259	0.01202	167	556	210	0	0	1	0	0	-82.4615	18.2878	83.6870	-14.4541	0.0000	0.0000	0.0000	0.0000;
	1214	23	0.00381	0.01575	0.00261	167	556	210	0	0	1	0	0	-59.0487	20.4984	59.1931	-20.1706	0.0000	0.0000	0.0000	0.0000;
	908	24	0.00179	0.00742	0.00123	167	556	210	0	0	1	0	0	-14.2350	-12.1041	14.2410	12.0011	0.0000	0.0000	0.0000	0.0000;
	913	24	0.02737	0.11317	0.01874	167	556	210	0	0	1	0	0	-10.7520	0.8883	10.7834	-2.7065	0.0000	0.0000	0.0000	0.0000;
	914	24	0.03784	0.15647	0.02591	167	556	210	0	0	1	0	0	-8.8903	0.3198	8.9201	-2.8900	0.0000	0.0000	0.0000	0.0000;
	1100	24	0.02855	0.11804	0.01955	167	556	210	0	0	1	0	0	63.1222	-14.9526	-61.9724	17.6751	0.0000	0.0000	0.0000	0.0000;
	1102	24	0.02496	0.10319	0.01709	167	556	210	0	0	1	0	0	-41.0741	2.7366	41.4879	-2.7911	0.0000	0.0000	0.0000	0.0000;
	25	83	0.0105	0.04341	0.00719	167	556	210	0	0	1	0	0	-2.1100	-0.0000	2.1105	-0.7469	0.0000	0.0000	0.0000	0.0000;
	26	557	1e-05	0.00019	0.00501	1216	2454	1804	0	0	1	0	0	168.8024	92.0102	-168.7988	-92.4638	0.0000	0.0000	0.0000	0.0000;
	26	557	1e-05	0.00018	0.00468	1216	2454	1804	0	0	1	0	0	178.4353	96.6184	-178.4314	-97.0339	0.0000	0.0000	0.0000	0.0000;
	26	1468	0.00124	0.0559	0	1347	1347	1347	1	0	1	0	0	448.8812	49.8168	-446.4501	59.7781	0.0000	0.0000	0.0000	0.0000;
	26	1468	0.00124	0.0559	0	1347	1347	1347	1	0	1	0	0	448.8812	49.8168	-446.4501	59.7781	0.0000	0.0000	0.0000	0.0000;
	1068	27	7e-05	0.0003	5e-05	167	556	210	0	0	1	0	0	-54.4587	-50.2322	54.4624	50.2428	0.0000	0.0000	0.0000	0.0000;
	1070	27	0.00033	0.00136	0.00022	167	556	210	0	0	1	0	0	-59.1054	-18.6504	59.1176	18.6778	0.0000	0.0000	0.0000	0.0000;
	1286	28	0.0005	0.00207	0.00035	116	556	145	0	0	1	0	0	-28.0950	5.2786	28.0989	-5.2987	0.0000	0.0000	0.0000	0.0000;
	1287	28	0.0005	0.00205	0.00034	116	556	145	0	0	1	0	0	30.2135	-5.3156	-30.2089	5.2987	0.0000	0.0000	0.0000	0.0000;
	124	29	0.03314	0.13704	0.02269	167	556	210	0	0	1	0	0	-24.2664	8.1165	24.4894	-9.4590	0.0000	0.0000	0.0000	0.0000;
	29	152	0.00852	0.03523	0.00583	167	556	210	0	0	1	0	0	-102.0440	24.1312	102.9875	-20.8101	0.0000	0.0000	0.0000	0.0000;
	212	29	0.01428	0.05907	0.00978	167	556	210	0	0	1	0	0	-31.8082	4.9623	31.9582	-5.3125	0.0000	0.0000	0.0000	0.0000;
	896	29	0.02749	0.11366	0.01882	167	556	210	0	0	1	0	0	-27.3268	8.4330	27.5563	-9.3596	0.0000	0.0000	0.0000	0.0000;
	30	55	0.02366	0.09785	0.0162	167	556	210	0	0	1	0	0	133.9405	-6.4363	-129.8536	21.6813	0.0000	0.0000	0.0000	0.0000;
	30	131	0.00843	0.03485	0.00577	167	556	210	0	0	1	0	0	-83.4605	29.1202	84.0950	-27.0958	0.0000	0.0000	0.0000	0.0000;
	32	31	0.0006	0.0027	0.00044	135	556	175	0	0	1	0	0	12.4349	-2.7840	-12.4340	2.7424	0.0000	0.0000	0.0000	0.0000;
	680	31	0.00125	0.00518	0.00086	167	556	210	0	0	1	0	0	-67.4069	14.2815	67.4640	-14.1345	0.0000	0.0000	0.0000	0.0000;
	32	84	0.0108	0.0428	0.0055	120	556	120	0	0	1	0	0	6.5003	-1.9165	-6.4956	1.3628	0.0000	0.0000	0.0000	0.0000;
	32	474	0.00565	0.02337	0.00387	167	556	210	0	0	1	0	0	76.5372	-17.9713	-76.2019	18.9554	0.0000	0.0000	0.0000	0.0000;
	32	678	0.006	0.027	0.0044	167	556	210	0	0	1	0	0	47.5576	-10.1634	-47.4215	10.3182	0.0000	0.0000	0.0000	0.0000;
	33	140	0.00862	0.03565	0.0059	167	556	210	0	0	1	0	0	113.7736	-15.6235	-112.6923	19.4776	0.0000	0.0000	0.0000	0.0000;
	33	1469	0.01066	0.04408	0.0073	167	556	210	0	0	1	0	0	-62.8836	8.8196	63.2934	-7.8942	0.0000	0.0000	0.0000	0.0000;
	1178	34	0.00098	0.00404	0.00067	167	556	210	0	0	1	0	0	-32.6577	-5.4424	32.6680	5.4153	0.0000	0.0000	0.0000	0.0000;
	1179	34	0.00097	0.004	0.00066	167	556	210	0	0	1	0	0	-15.7090	-8.3865	15.7120	8.3300	0.0000	0.0000	0.0000	0.0000;
	35	36	0.00018	0.00076	0.00013	220	563	265	0	0	1	0	0	-134.8212	57.8416	134.8596	-57.6925	0.0000	0.0000	0.0000	0.0000;
	35	36	0.00018	0.00076	0.00013	220	563	265	0	0	1	0	0	-134.8212	57.8416	134.8596	-57.6925	0.0000	0.0000	0.0000	0.0000;
	35	191	0.01727	0.07139	0.01182	167	556	210	0	0	1	0	0	30.0885	-13.0376	-29.9070	12.5912	0.0000	0.0000	0.0000	0.0000;
	35	485	0.01865	0.07712	0.01277	221	556	244	0	0	1	0	0	110.4920	-42.3728	-107.9124	51.7315	0.0000	0.0000	0.0000	0.0000;
	35	485	0.01865	0.07712	0.01277	221	556	244	0	0	1	0	0	110.4920	-42.3728	-107.9124	51.7315	0.0000	0.0000	0.0000	0.0000;
	36	190	0.02914	0.1205	0.01995	167	556	210	0	0	1	0	0	-69.8441	5.6167	71.2668	-1.7770	0.0000	0.0000	0.0000	0.0000;
	36	192	0.00793	0.03281	0.00543	221	556	265	0	0	1	0	0	-172.3566	58.3045	174.9633	-48.0651	0.0000	0.0000	0.0000	0.0000;
	36	192	0.00793	0.03281	0.00543	221	556	265	0	0	1	0	0	-172.3566	58.3045	174.9633	-48.0651	0.0000	0.0000	0.0000	0.0000;
	490	36	0.0375	0.24	0.033	170	563	187	0	0	1	0	0	-95.2223	26.8343	98.8682	-6.8405	0.0000	0.0000	0.0000	0.0000;
	37	270	0.00261	0.01077	0.00178	167	556	210	0	0	1	0	0	-6.4235	0.0869	6.4245	-0.2642	0.0000	0.0000	0.0000	0.0000;
	37	270	0.00334	0.01382	0.00229	167	556	210	0	0	1	0	0	-5.0067	0.0186	5.0075	-0.2488	0.0000	0.0000	0.0000	0.0000;
	37	273	0.00153	0.00631	0.00104	167	556	210	0	0	1	0	0	2.8601	-0.1056	-2.8600	0.0000	0.0000	0.0000	0.0000	0.0000;
	38	91	0.00853	0.03527	0.00584	167	556	210	0	0	1	0	0	62.6730	-7.2567	-62.3470	7.9986	0.0000	0.0000	0.0000	0.0000;
	38	97	0.01486	0.06145	0.01018	167	556	210	0	0	1	0	0	32.1170	-2.7143	-31.9690	2.2705	0.0000	0.0000	0.0000	0.0000;
	39	1307	0.00092	0.0074	0.02824	453	936	579	0	0	1	0	0	57.8904	16.4645	-57.8583	-19.1675	0.0000	0.0000	0.0000	0.0000;
	39	1469	0.00149	0.0623	0	326	369	423	1	0	1	0	0	68.1096	-5.1278	-68.0434	7.8942	0.0000	0.0000	0.0000	0.0000;
	779	40	0.00339	0.01403	0.00232	167	556	210	0	0	1	0	0	2.1101	-0.2429	-2.1100	0.0000	0.0000	0.0000	0.0000	0.0000;
	932	41	0.00025	0.00105	0.00017	167	556	210	0	0	1	0	0	0.4898	1.0940	-0.4898	-1.1113	0.0000	0.0000	0.0000	0.0000;
	933	41	0.0003	0.00123	0.0002	167	556	210	0	0	1	0	0	5.2202	-1.1314	-5.2202	1.1113	0.0000	0.0000	0.0000	0.0000;
	42	46	0.00072	0.00296	0.00049	167	556	210	0	0	1	0	0	8.5706	-0.1359	-8.5701	0.0870	0.0000	0.0000	0.0000	0.0000;
	1116	42	0.00378	0.01565	0.00259	167	556	210	0	0	1	0	0	-51.0940	2.9018	51.1894	-2.7756	0.0000	0.0000	0.0000	0.0000;
	1328	42	0.02099	0.08681	0.01438	167	556	210	0	0	1	0	0	-42.9935	6.4678	43.3795	-6.3624	0.0000	0.0000	0.0000	0.0000;
	1329	42	0.021	0.08682	0.01438	167	556	210	0	0	1	0	0	-42.9981	6.4733	43.3844	-6.3673	0.0000	0.0000	0.0000	0.0000;
	42	1330	0.00036	0.00149	0.00025	167	556	210	0	0	1	0	0	-57.4717	13.1411	57.4838	-13.1173	0.0000	0.0000	0.0000	0.0000;
	42	1576	0.00889	0.03675	0.00609	167	556	210	0	0	1	0	0	-54.4527	1.2533	54.7063	-0.8414	0.0000	0.0000	0.0000	0.0000;
	42	1576	0.00886	0.03666	0.00607	167	556	210	0	0	1	0	0	-54.5895	1.2467	54.8435	-0.8300	0.0000	0.0000	0.0000	0.0000;
	45	43	0.00052	0.00217	0.00036	167	556	210	0	0	1	0	0	9.6184	-0.9587	-9.6179	0.9233	0.0000	0.0000	0.0000	0.0000;
	1116	43	0.00609	0.02519	0.00417	167	556	210	0	0	1	0	0	-3.9070	0.4945	3.9079	-0.9233	0.0000	0.0000	0.0000	0.0000;
	45	44	0.00034	0.00142	0.00023	167	556	210	0	0	1	0	0	2.8600	-0.0238	-2.8600	-0.0000	0.0000	0.0000	0.0000	0.0000;
	45	1330	0.0088	0.03638	0.00602	167	556	210	0	0	1	0	0	-21.0484	0.9825	21.0861	-1.4520	0.0000	0.0000	0.0000	0.0000;
	46	1438	0.00123	0.00508	0.00084	167	556	210	0	0	1	0	0	2.8601	-0.0870	-2.8600	0.0000	0.0000	0.0000	0.0000	0.0000;
	1106	47	0.01392	0.05755	0.00953	167	556	210	0	0	1	0	0	2.8611	-0.9909	-2.8600	-0.0000	0.0000	0.0000	0.0000	0.0000;
	48	86	0.01054	0.04358	0.00722	167	556	210	0	0	1	0	0	-11.7329	8.1625	11.7542	-8.8229	0.0000	0.0000	0.0000	0.0000;
	1107	48	0.01145	0.04733	0.00784	167	556	210	0	0	1	0	0	-1.6368	5.6533	1.6411	-6.4524	0.0000	0.0000	0.0000	0.0000;
	48	1108	0.01146	0.0474	0.00785	167	556	210	0	0	1	0	0	1.6516	-6.4444	-1.6473	5.6443	0.0000	0.0000	0.0000	0.0000;
	48	1369	0.02381	0.09844	0.0163	167	556	210	0	0	1	0	0	-2.9799	4.7343	2.9890	-6.3828	0.0000	0.0000	0.0000	0.0000;
	1015	49	0.00233	0.00963	0.00159	167	556	210	0	0	1	0	0	-6.3631	-4.0406	6.3644	3.8822	0.0000	0.0000	0.0000	0.0000;
	1016	49	0.00231	0.00953	0.00158	167	556	210	0	0	1	0	0	10.5772	3.7311	-10.5744	-3.8822	0.0000	0.0000	0.0000	0.0000;
	50	412	0.00331	0.01367	0.00226	167	556	210	0	0	1	0	0	-2.2829	0.0284	2.2830	-0.2581	0.0000	0.0000	0.0000	0.0000;
	1031	50	0.00324	0.01342	0.00222	167	556	210	0	0	1	0	0	1.9273	-0.1974	-1.9271	-0.0284	0.0000	0.0000	0.0000	0.0000;
	51	131	0.00276	0.01143	0.00189	167	556	210	0	0	1	0	0	-4.5100	0.0000	4.5105	-0.1933	0.0000	0.0000	0.0000	0.0000;
	52	131	0.01481	0.06124	0.01014	167	556	210	0	0	1	0	0	11.6900	1.1524	-11.6701	-2.1225	0.0000	0.0000	0.0000	0.0000;
	53	152	0.03542	0.14646	0.02425	167	556	210	0	0	1	0	0	116.6422	-4.1149	-112.0075	20.8101	0.0000	0.0000	0.0000	0.0000;
	1565	53	0.0223	0.09221	0.01527	167	556	210	0	0	1	0	0	89.9271	-14.9857	-88.1622	20.6897	0.0000	0.0000	0.0000	0.0000;
	54	132	0.00359	0.02888	0.11019	453	936	579	0	0	1	0	0	-312.4030	38.0160	315.8648	-21.5669	0.0000	0.0000	0.0000	0.0000;
	1303	54	0.00498	0.04	0.15261	453	936	579	0	0	1	0	0	-307.6491	60.3873	312.4030	-38.0160	0.0000	0.0000	0.0000	0.0000;
	55	56	0.00881	0.03642	0.00603	167	556	210	0	0	1	0	0	61.1300	-10.6732	-60.7932	11.4602	0.0000	0.0000	0.0000	0.0000;
	124	55	0.03506	0.14498	0.02401	167	556	210	0	0	1	0	0	-54.0979	13.1290	55.1936	-11.0081	0.0000	0.0000	0.0000	0.0000;
	56	57	0.01171	0.04844	0.00802	167	556	210	0	0	1	0	0	51.7732	-11.4602	-51.4459	12.0101	0.0000	0.0000	0.0000	0.0000;
	57	133	0.01248	0.05159	0.00854	167	556	210	0	0	1	0	0	42.4259	-12.0101	-42.1850	12.1493	0.0000	0.0000	0.0000	0.0000;
	58	353	0.00193	0.00799	0.00132	417	417	417	0	0	1	0	0	115.7915	-8.8861	-115.5410	9.7863	0.0000	0.0000	0.0000	0.0000;
	58	1552	0.00016	0.00068	0.00011	417	417	417	0	0	1	0	0	-122.5515	8.8861	122.5748	-8.7987	0.0000	0.0000	0.0000	0.0000;
	59	83	0.00638	0.02637	0.00437	167	556	210	0	0	1	0	0	-3.7796	3.5749	3.7814	-4.0231	0.0000	0.0000	0.0000	0.0000;
	59	83	0.00637	0.02632	0.00436	167	556	210	0	0	1	0	0	-3.7864	3.5829	3.7882	-4.0300	0.0000	0.0000	0.0000	0.0000;
	1027	59	0.00722	0.02987	0.00495	167	556	210	0	0	1	0	0	-108.4711	23.4897	109.3268	-20.4654	0.0000	0.0000	0.0000	0.0000;
	1028	59	0.00721	0.02982	0.00494	167	556	210	0	0	1	0	0	-110.8813	22.4073	111.7698	-19.2469	0.0000	0.0000	0.0000	0.0000;
	1040	59	0.0223	0.09222	0.01527	167	556	210	0	0	1	0	0	2.9478	-3.8499	-2.9439	2.2766	0.0000	0.0000	0.0000	0.0000;
	1041	59	0.0223	0.09221	0.01527	167	556	210	0	0	1	0	0	2.8663	-3.8370	-2.8625	2.2632	0.0000	0.0000	0.0000	0.0000;
	59	1220	0.00149	0.0623	0	325	325	325	0	0	1	0	0	-177.2625	15.8219	177.7150	3.0965	0.0000	0.0000	0.0000	0.0000;
	60	500	0.03202	0.0728	0.00142	96	250	123	0	0	1	0	0	-19.8038	8.4017	19.9466	-8.2248	0.0000	0.0000	0.0000	0.0000;
	533	60	0.04755	0.10809	0.00211	96	250	123	0	0	1	0	0	-28.3350	2.8381	28.7138	-2.1943	0.0000	0.0000	0.0000	0.0000;
	1271	61	0.03583	0.14818	0.02454	167	556	210	0	0	1	0	0	32.0293	-6.6331	-31.6567	5.6894	0.0000	0.0000	0.0000	0.0000;
	61	1289	0.02422	0.10014	0.01658	167	556	210	0	0	1	0	0	8.9138	-2.8252	-8.8938	1.2334	0.0000	0.0000	0.0000	0.0000;
	61	1289	0.02343	0.09689	0.01604	167	556	210	0	0	1	0	0	9.2130	-2.8643	-9.1923	1.3298	0.0000	0.0000	0.0000	0.0000;
	63	62	0	5e-05	0.00123	1216	1216	1804	0	0	1	0	0	814.4373	-4.5185	-814.4373	4.7093	0.0000	0.0000	0.0000	0.0000;
	62	722	0.00025	0.00383	0.09893	1216	2454	1804	0	0	1	0	0	814.4373	-4.7093	-812.8435	18.8504	0.0000	0.0000	0.0000	0.0000;
	63	800	0.00024	0.00373	0.096	1216	1216	1804	0	0	1	0	0	-160.7373	-48.8971	160.8014	39.8851	0.0000	0.0000	0.0000	0.0000;
	64	422	6e-05	0.00024	4e-05	167	556	210	0	0	1	0	0	-2.1100	0.0000	2.1100	-0.0040	0.0000	0.0000	0.0000	0.0000;
	1000	65	0.01367	0.05653	0.00936	167	556	210	0	0	1	0	0	-12.9339	3.1922	12.9576	-4.0698	0.0000	0.0000	0.0000	0.0000;
	65	1573	0.00587	0.02425	0.00402	167	556	210	0	0	1	0	0	-18.6676	4.0698	18.6883	-4.4033	0.0000	0.0000	0.0000	0.0000;
	890	66	5e-05	0.00019	3e-05	167	556	210	0	0	1	0	0	3.0438	-0.3760	-3.0438	0.3729	0.0000	0.0000	0.0000	0.0000;
	891	66	5e-05	0.00022	4e-05	167	556	210	0	0	1	0	0	2.6662	0.3688	-2.6662	-0.3729	0.0000	0.0000	0.0000	0.0000;
	889	67	0.00077	0.00317	0.00052	167	556	210	0	0	1	0	0	2.8601	-0.0536	-2.8600	-0.0000	0.0000	0.0000	0.0000	0.0000;
	68	134	0.01482	0.0613	0.01015	167	556	210	0	0	1	0	0	-3.3240	5.5348	3.3308	-6.5528	0.0000	0.0000	0.0000	0.0000;
	1323	68	0.01272	0.05258	0.00871	167	556	210	0	0	1	0	0	2.3899	4.6475	-2.3860	-5.5348	0.0000	0.0000	0.0000	0.0000;
	69	77	0.0177	0.07319	0.01212	167	556	210	0	0	1	0	0	-24.1842	5.3091	24.2897	-6.1339	0.0000	0.0000	0.0000	0.0000;
	69	77	0.01769	0.07315	0.01211	167	556	210	0	0	1	0	0	-24.1974	5.3128	24.3030	-6.1363	0.0000	0.0000	0.0000	0.0000;
	891	69	0.01523	0.06298	0.01043	167	556	210	0	0	1	0	0	-11.2887	-2.0285	11.3077	1.0251	0.0000	0.0000	0.0000	0.0000;
	1331	69	0.00079	0.00329	0.00054	167	556	210	0	0	1	0	0	-11.2376	-3.5304	11.2387	3.4786	0.0000	0.0000	0.0000	0.0000;
	1332	69	0.00081	0.00336	0.00056	167	556	210	0	0	1	0	0	-11.5541	-3.4544	11.5552	3.4008	0.0000	0.0000	0.0000	0.0000;
	1331	70	5e-05	0.00019	3e-05	167	556	210	0	0	1	0	0	7.8090	-0.0206	-7.8090	0.0176	0.0000	0.0000	0.0000	0.0000;
	1332	70	4e-05	0.00017	3e-05	167	556	210	0	0	1	0	0	-2.0990	0.0145	2.0990	-0.0176	0.0000	0.0000	0.0000	0.0000;
	71	78	0.01035	0.04279	0.00709	167	556	210	0	0	1	0	0	20.8717	-2.7338	-20.8280	2.1743	0.0000	0.0000	0.0000	0.0000;
	1000	71	0.00889	0.03676	0.00609	167	556	210	0	0	1	0	0	-18.8211	0.8376	18.8515	-1.3479	0.0000	0.0000	0.0000	0.0000;
	71	1572	0.01784	0.07378	0.01222	167	556	210	0	0	1	0	0	-48.2932	4.0818	48.6951	-3.7038	0.0000	0.0000	0.0000	0.0000;
	1325	72	8e-05	0.00034	6e-05	167	556	210	0	0	1	0	0	2.8600	-0.0062	-2.8600	-0.0000	0.0000	0.0000	0.0000	0.0000;
	73	74	0.00162	0.00669	0.00111	167	556	210	0	0	1	0	0	12.1763	-0.6461	-12.1740	0.5402	0.0000	0.0000	0.0000	0.0000;
...
];

...